


 25 23  0  0  1  0            999 V2000
    1.8536   -0.7307    1.9681 C   0  0  0  0  0  0
    1.5886   -0.0926    0.6179 C   0  0  0  0  0  0
    2.5184    0.2835   -0.0943 O   0  0  0  0  0  0
    0.2800    0.0258    0.2277 N   0  0  0  0  0  0
   -0.8623   -0.2513    1.0753 C   0  0  0  0  0  0
   -0.0269    0.6933   -1.0217 C   0  0  0  0  0  0
    2.9478   -0.7784    2.0990 H   0  0  0  0  0  0
    1.4474   -1.7546    2.0260 H   0  0  0  0  0  0
    1.4263   -0.1356    2.7926 H   0  0  0  0  0  0
   -1.3173    0.6849    1.4402 H   0  0  0  0  0  0
   -1.6181   -0.8067    0.4947 H   0  0  0  0  0  0
   -0.5683   -0.8621    1.9453 H   0  0  0  0  0  0
    0.8950    0.7935   -1.6190 H   0  0  0  0  0  0
   -0.7580    0.1032   -1.5995 H   0  0  0  0  0  0
   -0.4449    1.6992   -0.8485 H   0  0  0  0  0  0
    2.9133    3.6713    2.7311 C   0  0  0  0  0  0
    1.6357    3.9143    1.9264 C   0  0  0  0  0  0
    1.8298    4.1311    0.4918 N   0  0  0  0  0  0
    3.4355    2.7762    2.3532 H   0  0  0  0  0  0
    2.6793    3.5179    3.7980 H   0  0  0  0  0  0
    3.5898    4.5377    2.6403 H   0  0  0  0  0  0
    0.9589    3.0459    2.0410 H   0  0  0  0  0  0
    1.1128    4.8038    2.3274 H   0  0  0  0  0  0
    2.3081    3.3225    0.0793 H   0  0  0  0  0  0
    2.4494    4.9351    0.3420 H   0  0  0  0  0  0
  1  2  1  0  0  0
  2  3  2  0  0  0
  2  4  1  0  0  0
  4  5  1  0  0  0
  4  6  1  0  0  0
  1  7  1  0  0  0
  1  8  1  0  0  0
  1  9  1  0  0  0
  5 10  1  0  0  0
  5 11  1  0  0  0
  5 12  1  0  0  0
  6 13  1  0  0  0
  6 14  1  0  0  0
  6 15  1  0  0  0
 16 17  1  0  0  0
 17 18  1  0  0  0
 16 19  1  0  0  0
 16 20  1  0  0  0
 16 21  1  0  0  0
 17 22  1  0  0  0
 17 23  1  0  0  0
 18 24  1  0  0  0
 18 25  1  0  0  0
M  END
$$$$
