


 18 16  0  0  1  0            999 V2000
    3.5922   -0.0271    0.9765 C   0  0  0  0  0  0
    2.8080    1.1758    0.7711 N   0  0  0  0  0  0
    3.0497    2.3027    1.4834 C   0  0  0  0  0  0
    3.9214    2.4023    2.3343 O   0  0  0  0  0  0
    4.6586    0.1571    0.7631 H   0  0  0  0  0  0
    3.2288   -0.8167    0.2976 H   0  0  0  0  0  0
    3.4981   -0.3856    2.0154 H   0  0  0  0  0  0
    2.0546    1.1904    0.0792 H   0  0  0  0  0  0
    2.3641    3.1415    1.2114 H   0  0  0  0  0  0
   -1.4086   -0.9456   -0.1788 C   0  0  0  0  0  0
   -1.4263    0.4796   -1.2788 S   0  0  0  0  0  0
   -2.0809    1.6909   -0.1187 C   0  0  0  0  0  0
   -1.0215   -1.8094   -0.7449 H   0  0  0  0  0  0
   -2.4217   -1.1880    0.1839 H   0  0  0  0  0  0
   -0.7545   -0.7745    0.6928 H   0  0  0  0  0  0
   -3.0824    1.4031    0.2429 H   0  0  0  0  0  0
   -1.4153    1.8167    0.7518 H   0  0  0  0  0  0
   -2.1607    2.6580   -0.6431 H   0  0  0  0  0  0
  1  2  1  0  0  0
  2  3  1  0  0  0
  3  4  2  0  0  0
  1  5  1  0  0  0
  1  6  1  0  0  0
  1  7  1  0  0  0
  2  8  1  0  0  0
  3  9  1  0  0  0
 10 11  1  0  0  0
 11 12  1  0  0  0
 10 13  1  0  0  0
 10 14  1  0  0  0
 10 15  1  0  0  0
 12 16  1  0  0  0
 12 17  1  0  0  0
 12 18  1  0  0  0
M  END
$$$$
