


 12 10  0  0  1  0            999 V2000
   -5.0848    0.2140    1.8741 C   0  0  0  0  0  0
   -4.3343    0.8597    2.7964 C   0  0  0  0  0  0
   -4.5126   -0.1914    1.0318 H   0  0  0  0  0  0
   -6.1574   -0.0074    1.9150 H   0  0  0  0  0  0
   -3.2545    1.0391    2.7418 H   0  0  0  0  0  0
   -4.8559    1.1649    3.7108 H   0  0  0  0  0  0
   -1.3094    4.5248   -3.1822 C   0  0  0  0  0  0
   -2.0756    3.4406   -3.1469 C   0  0  0  0  0  0
   -1.1000    5.1633   -2.3164 H   0  0  0  0  0  0
   -0.8413    4.7912   -4.1368 H   0  0  0  0  0  0
   -2.4613    3.1522   -2.1624 H   0  0  0  0  0  0
   -2.2884    2.7761   -3.9921 H   0  0  0  0  0  0
  1  2  2  0  0  0
  1  3  1  0  0  0
  1  4  1  0  0  0
  2  5  1  0  0  0
  2  6  1  0  0  0
  7  8  2  0  0  0
  7  9  1  0  0  0
  7 10  1  0  0  0
  8 11  1  0  0  0
  8 12  1  0  0  0
M  END
$$$$
