


 12 10  0  0  1  0            999 V2000
    5.5663    0.2363    1.6357 C   0  0  0  0  0  0
    5.8839   -0.4831    0.5520 C   0  0  0  0  0  0
    6.2449    0.9691    2.0872 H   0  0  0  0  0  0
    4.6104    0.0498    2.1383 H   0  0  0  0  0  0
    6.7907   -0.3061   -0.0376 H   0  0  0  0  0  0
    5.1694   -1.2249    0.1775 H   0  0  0  0  0  0
    3.3997   -0.2023   -3.7506 C   0  0  0  0  0  0
    4.1272   -0.4842   -2.6602 C   0  0  0  0  0  0
    3.3698    0.8320   -4.1117 H   0  0  0  0  0  0
    2.8233   -0.9522   -4.3043 H   0  0  0  0  0  0
    4.6597    0.2149   -2.0052 H   0  0  0  0  0  0
    4.1337   -1.5452   -2.3856 H   0  0  0  0  0  0
  1  2  2  0  0  0
  1  3  1  0  0  0
  1  4  1  0  0  0
  2  5  1  0  0  0
  2  6  1  0  0  0
  7  8  2  0  0  0
  7  9  1  0  0  0
  7 10  1  0  0  0
  8 11  1  0  0  0
  8 12  1  0  0  0
M  END
$$$$
