


 12 10  0  0  1  0            999 V2000
    5.5369    0.9440   -3.4300 C   0  0  0  0  0  0
    4.3561    0.4411   -3.0373 C   0  0  0  0  0  0
    5.6839    1.5053   -4.3598 H   0  0  0  0  0  0
    6.3996    0.8259   -2.7644 H   0  0  0  0  0  0
    3.4604    0.6047   -3.6474 H   0  0  0  0  0  0
    4.2394   -0.1143   -2.0997 H   0  0  0  0  0  0
   -1.3231    4.6880   -0.7637 C   0  0  0  0  0  0
   -1.7753    4.9698    0.4427 C   0  0  0  0  0  0
   -1.9454    4.8365   -1.6536 H   0  0  0  0  0  0
   -0.3113    4.2930   -0.9097 H   0  0  0  0  0  0
   -2.7769    5.4096    0.5109 H   0  0  0  0  0  0
   -1.2214    4.8169    1.3760 H   0  0  0  0  0  0
  1  2  2  0  0  0
  1  3  1  0  0  0
  1  4  1  0  0  0
  2  5  1  0  0  0
  2  6  1  0  0  0
  7  8  2  0  0  0
  7  9  1  0  0  0
  7 10  1  0  0  0
  8 11  1  0  0  0
  8 12  1  0  0  0
M  END
$$$$
