


 12 10  0  0  1  0            999 V2000
    3.2531   -4.8087    0.7703 C   0  0  0  0  0  0
    3.7312   -4.5695   -0.4575 C   0  0  0  0  0  0
    3.4701   -4.0436    1.5245 H   0  0  0  0  0  0
    2.6355   -5.6619    1.0732 H   0  0  0  0  0  0
    4.2396   -3.6244   -0.6798 H   0  0  0  0  0  0
    3.6024   -5.2842   -1.2784 H   0  0  0  0  0  0
   -5.6003    2.4773   -0.4309 C   0  0  0  0  0  0
   -4.8415    2.6407   -1.5007 C   0  0  0  0  0  0
   -6.5019    3.0758   -0.2571 H   0  0  0  0  0  0
   -5.3770    1.6741    0.2806 H   0  0  0  0  0  0
   -5.0101    3.3791   -2.2929 H   0  0  0  0  0  0
   -3.9886    1.9612   -1.6107 H   0  0  0  0  0  0
  1  2  2  0  0  0
  1  3  1  0  0  0
  1  4  1  0  0  0
  2  5  1  0  0  0
  2  6  1  0  0  0
  7  8  2  0  0  0
  7  9  1  0  0  0
  7 10  1  0  0  0
  8 11  1  0  0  0
  8 12  1  0  0  0
M  END
$$$$
