


 12 10  0  0  1  0            999 V2000
    0.3311    2.3314    4.1696 C   0  0  0  0  0  0
    1.3840    2.6748    3.3968 C   0  0  0  0  0  0
    0.2388    2.7154    5.1920 H   0  0  0  0  0  0
   -0.4629    1.6731    3.7990 H   0  0  0  0  0  0
    2.1809    3.3049    3.8081 H   0  0  0  0  0  0
    1.5105    2.2945    2.3768 H   0  0  0  0  0  0
   -4.2028    1.4629   -3.6728 C   0  0  0  0  0  0
   -3.1387    1.6382   -2.9133 C   0  0  0  0  0  0
   -5.1887    1.2855   -3.2283 H   0  0  0  0  0  0
   -4.1179    1.4045   -4.7640 H   0  0  0  0  0  0
   -3.1715    1.6453   -1.8178 H   0  0  0  0  0  0
   -2.1572    1.7192   -3.3941 H   0  0  0  0  0  0
  1  2  2  0  0  0
  1  3  1  0  0  0
  1  4  1  0  0  0
  2  5  1  0  0  0
  2  6  1  0  0  0
  7  8  2  0  0  0
  7  9  1  0  0  0
  7 10  1  0  0  0
  8 11  1  0  0  0
  8 12  1  0  0  0
M  END
$$$$
