


 12 10  0  0  1  0            999 V2000
   -3.5598   -3.7408    1.9987 C   0  0  0  0  0  0
   -3.2568   -2.5497    1.5332 C   0  0  0  0  0  0
   -4.5699   -3.9718    2.3557 H   0  0  0  0  0  0
   -2.8150   -4.5446    2.0217 H   0  0  0  0  0  0
   -4.0867   -1.8423    1.4238 H   0  0  0  0  0  0
   -2.2659   -2.2295    1.1912 H   0  0  0  0  0  0
    5.3045   -2.8625    0.1364 C   0  0  0  0  0  0
    6.0083   -2.6483    1.2337 C   0  0  0  0  0  0
    4.7535   -2.0087   -0.2742 H   0  0  0  0  0  0
    5.2738   -3.8049   -0.4222 H   0  0  0  0  0  0
    6.0168   -1.6699    1.7276 H   0  0  0  0  0  0
    6.6655   -3.4277    1.6360 H   0  0  0  0  0  0
  1  2  2  0  0  0
  1  3  1  0  0  0
  1  4  1  0  0  0
  2  5  1  0  0  0
  2  6  1  0  0  0
  7  8  2  0  0  0
  7  9  1  0  0  0
  7 10  1  0  0  0
  8 11  1  0  0  0
  8 12  1  0  0  0
M  END
$$$$
