


 12 10  0  0  1  0            999 V2000
   -1.1596    0.1132    4.2701 C   0  0  0  0  0  0
   -1.8827   -0.8178    4.9345 C   0  0  0  0  0  0
   -0.3482    0.7001    4.7155 H   0  0  0  0  0  0
   -1.3675    0.2587    3.2039 H   0  0  0  0  0  0
   -1.7324   -1.0725    5.9899 H   0  0  0  0  0  0
   -2.6310   -1.3896    4.3740 H   0  0  0  0  0  0
    0.3767    2.7615   -4.5290 C   0  0  0  0  0  0
   -0.0047    1.6381   -3.9518 C   0  0  0  0  0  0
   -0.1598    3.1789   -5.3887 H   0  0  0  0  0  0
    1.2555    3.3053   -4.1638 H   0  0  0  0  0  0
   -0.8175    0.9861   -4.2915 H   0  0  0  0  0  0
    0.5198    1.3604   -3.0304 H   0  0  0  0  0  0
  1  2  2  0  0  0
  1  3  1  0  0  0
  1  4  1  0  0  0
  2  5  1  0  0  0
  2  6  1  0  0  0
  7  8  2  0  0  0
  7  9  1  0  0  0
  7 10  1  0  0  0
  8 11  1  0  0  0
  8 12  1  0  0  0
M  END
$$$$
