


 12 10  0  0  1  0            999 V2000
   -2.4319   -9.9030    7.0879 C   0  0  0  0  0  0
   -3.7101   -9.8513    6.7279 C   0  0  0  0  0  0
   -1.7061  -10.4323    6.4600 H   0  0  0  0  0  0
   -2.0511   -9.3635    7.9626 H   0  0  0  0  0  0
   -4.0771  -10.3332    5.8144 H   0  0  0  0  0  0
   -4.4404   -9.3315    7.3584 H   0  0  0  0  0  0
   -0.5347   -7.1685    9.8234 C   0  0  0  0  0  0
    0.7773   -7.0710   10.0722 C   0  0  0  0  0  0
   -1.0509   -6.5433    9.0859 H   0  0  0  0  0  0
   -1.1126   -7.9601   10.3139 H   0  0  0  0  0  0
    1.3793   -6.3039    9.5720 H   0  0  0  0  0  0
    1.2931   -7.7634   10.7474 H   0  0  0  0  0  0
  1  2  2  0  0  0
  1  3  1  0  0  0
  1  4  1  0  0  0
  2  5  1  0  0  0
  2  6  1  0  0  0
  7  8  2  0  0  0
  7  9  1  0  0  0
  7 10  1  0  0  0
  8 11  1  0  0  0
  8 12  1  0  0  0
M  END
$$$$
