


 12 10  0  0  1  0            999 V2000
    0.3767    2.7615   -4.5290 C   0  0  0  0  0  0
   -0.0047    1.6381   -3.9518 C   0  0  0  0  0  0
   -0.1598    3.1789   -5.3887 H   0  0  0  0  0  0
    1.2555    3.3053   -4.1638 H   0  0  0  0  0  0
   -0.8175    0.9861   -4.2915 H   0  0  0  0  0  0
    0.5198    1.3604   -3.0304 H   0  0  0  0  0  0
    6.8667   -1.6483   -0.9317 C   0  0  0  0  0  0
    5.6014   -1.2539   -0.6347 C   0  0  0  0  0  0
    7.6010   -2.1032   -0.2571 H   0  0  0  0  0  0
    7.1791   -1.4451   -1.9624 H   0  0  0  0  0  0
    5.1845   -1.4294    0.3636 H   0  0  0  0  0  0
    4.9776   -0.7201   -1.3608 H   0  0  0  0  0  0
  1  2  2  0  0  0
  1  3  1  0  0  0
  1  4  1  0  0  0
  2  5  1  0  0  0
  2  6  1  0  0  0
  7  8  2  0  0  0
  7  9  1  0  0  0
  7 10  1  0  0  0
  8 11  1  0  0  0
  8 12  1  0  0  0
M  END
$$$$
