


 12 10  0  0  1  0            999 V2000
    2.8475   -1.6925    4.7053 C   0  0  0  0  0  0
    2.2729   -2.2464    5.8072 C   0  0  0  0  0  0
    2.2342   -1.2695    3.9014 H   0  0  0  0  0  0
    3.9368   -1.6290    4.6023 H   0  0  0  0  0  0
    1.1905   -2.2872    5.9741 H   0  0  0  0  0  0
    2.9231   -2.6896    6.5702 H   0  0  0  0  0  0
    1.2958    6.4411    0.0612 C   0  0  0  0  0  0
    0.2432    5.7536    0.4156 C   0  0  0  0  0  0
    2.2764    5.9662   -0.0574 H   0  0  0  0  0  0
    1.2125    7.5061   -0.1837 H   0  0  0  0  0  0
    0.2651    4.6694    0.5743 H   0  0  0  0  0  0
   -0.6953    6.2800    0.6237 H   0  0  0  0  0  0
  1  2  2  0  0  0
  1  3  1  0  0  0
  1  4  1  0  0  0
  2  5  1  0  0  0
  2  6  1  0  0  0
  7  8  2  0  0  0
  7  9  1  0  0  0
  7 10  1  0  0  0
  8 11  1  0  0  0
  8 12  1  0  0  0
M  END
$$$$
