


 12 10  0  0  1  0            999 V2000
    6.0532   -0.1580    2.4597 C   0  0  0  0  0  0
    5.7935    0.0313    1.1539 C   0  0  0  0  0  0
    5.3291   -0.5704    3.1716 H   0  0  0  0  0  0
    7.0319    0.1470    2.8476 H   0  0  0  0  0  0
    4.8234   -0.2177    0.7087 H   0  0  0  0  0  0
    6.5307    0.5363    0.5193 H   0  0  0  0  0  0
    5.2843   -3.4969   -3.0096 C   0  0  0  0  0  0
    4.8800   -2.4440   -2.2982 C   0  0  0  0  0  0
    6.2670   -3.9607   -2.8670 H   0  0  0  0  0  0
    4.5985   -3.9657   -3.7246 H   0  0  0  0  0  0
    5.5142   -2.0215   -1.5105 H   0  0  0  0  0  0
    3.8897   -1.9990   -2.4484 H   0  0  0  0  0  0
  1  2  2  0  0  0
  1  3  1  0  0  0
  1  4  1  0  0  0
  2  5  1  0  0  0
  2  6  1  0  0  0
  7  8  2  0  0  0
  7  9  1  0  0  0
  7 10  1  0  0  0
  8 11  1  0  0  0
  8 12  1  0  0  0
M  END
$$$$
