


 12 10  0  0  1  0            999 V2000
   -3.7038   -3.2504   -1.1487 C   0  0  0  0  0  0
   -4.6641   -2.7405   -0.3719 C   0  0  0  0  0  0
   -2.7751   -2.6965   -1.3272 H   0  0  0  0  0  0
   -3.8365   -4.2045   -1.6715 H   0  0  0  0  0  0
   -4.4972   -1.7531    0.0737 H   0  0  0  0  0  0
   -5.5964   -3.2605   -0.1235 H   0  0  0  0  0  0
   -2.3453   -4.9444   -6.5160 C   0  0  0  0  0  0
   -1.8334   -4.6449   -5.3408 C   0  0  0  0  0  0
   -1.8721   -5.7592   -7.0758 H   0  0  0  0  0  0
   -3.1609   -4.3980   -7.0033 H   0  0  0  0  0  0
   -0.9861   -5.2018   -4.9246 H   0  0  0  0  0  0
   -2.2509   -3.8286   -4.7402 H   0  0  0  0  0  0
  1  2  2  0  0  0
  1  3  1  0  0  0
  1  4  1  0  0  0
  2  5  1  0  0  0
  2  6  1  0  0  0
  7  8  2  0  0  0
  7  9  1  0  0  0
  7 10  1  0  0  0
  8 11  1  0  0  0
  8 12  1  0  0  0
M  END
$$$$
