


 12 10  0  0  1  0            999 V2000
    2.8482   -2.9542    0.4843 C   0  0  0  0  0  0
    1.7936   -3.1560   -0.3232 C   0  0  0  0  0  0
    2.8974   -2.0712    1.1316 H   0  0  0  0  0  0
    3.6541   -3.6924    0.5674 H   0  0  0  0  0  0
    1.0486   -2.3572   -0.4133 H   0  0  0  0  0  0
    1.6507   -4.0568   -0.9310 H   0  0  0  0  0  0
   -4.2899   -2.0525    0.2202 C   0  0  0  0  0  0
   -4.7040   -1.8465   -1.0248 C   0  0  0  0  0  0
   -4.0786   -1.2201    0.9012 H   0  0  0  0  0  0
   -4.2170   -3.0699    0.6211 H   0  0  0  0  0  0
   -4.8379   -0.8317   -1.4165 H   0  0  0  0  0  0
   -4.8858   -2.6844   -1.7076 H   0  0  0  0  0  0
  1  2  2  0  0  0
  1  3  1  0  0  0
  1  4  1  0  0  0
  2  5  1  0  0  0
  2  6  1  0  0  0
  7  8  2  0  0  0
  7  9  1  0  0  0
  7 10  1  0  0  0
  8 11  1  0  0  0
  8 12  1  0  0  0
M  END
$$$$
