


 21 20  0  0  1  0            999 V2000
    3.0132   -3.0180    3.0617 C   0  0  0  0  0  0
    4.6213   -2.7515    2.2971 S   0  0  0  0  0  0
    5.3625   -1.7539    3.5998 C   0  0  0  0  0  0
    2.4066   -3.6333    2.3761 H   0  0  0  0  0  0
    2.4871   -2.0647    3.2376 H   0  0  0  0  0  0
    3.1068   -3.5507    4.0230 H   0  0  0  0  0  0
    4.7959   -0.8223    3.7664 H   0  0  0  0  0  0
    5.4156   -2.3084    4.5519 H   0  0  0  0  0  0
    6.3874   -1.4914    3.2880 H   0  0  0  0  0  0
   -0.5423    4.0459    0.9400 C   0  0  0  0  0  0
    0.7648    3.3261    0.9921 C   0  0  0  0  0  0
    1.0260    1.9959    0.7311 C   0  0  0  0  0  0
    2.3783    1.8418    0.9201 N   0  0  0  0  0  0
    2.9105    0.9751    0.8101 H   0  0  0  0  0  0
    2.8821    3.0548    1.2810 C   0  0  0  0  0  0
    1.9318    3.9743    1.3338 N   0  0  0  0  0  0
   -1.3507    3.3547    0.6479 H   0  0  0  0  0  0
   -0.4980    4.8665    0.2043 H   0  0  0  0  0  0
   -0.7838    4.4721    1.9283 H   0  0  0  0  0  0
    0.3819    1.1680    0.4350 H   0  0  0  0  0  0
    3.9400    3.2112    1.4922 H   0  0  0  0  0  0
  1  2  1  0  0  0
  2  3  1  0  0  0
  1  4  1  0  0  0
  1  5  1  0  0  0
  1  6  1  0  0  0
  3  7  1  0  0  0
  3  8  1  0  0  0
  3  9  1  0  0  0
 10 11  1  0  0  0
 11 12  2  0  0  0
 12 13  1  0  0  0
 13 14  1  0  0  0
 13 15  1  0  0  0
 15 16  2  0  0  0
 11 16  1  0  0  0
 10 17  1  0  0  0
 10 18  1  0  0  0
 10 19  1  0  0  0
 12 20  1  0  0  0
 15 21  1  0  0  0
M  END
$$$$
