


 14 12  0  0  1  0            999 V2000
   -1.8974   -1.5371   -2.3888 C   0  0  0  0  0  0
   -0.9767   -0.9362   -2.4233 H   0  0  0  0  0  0
   -2.0452   -2.0374   -3.3573 H   0  0  0  0  0  0
   -2.7556   -0.8814   -2.1801 H   0  0  0  0  0  0
   -1.8121   -2.2934   -1.5947 H   0  0  0  0  0  0
    3.5793    0.9833    2.4187 C   0  0  0  0  0  0
    2.8503    2.2782    2.1398 C   0  0  0  0  0  0
    3.3643    2.8039    0.9130 O   0  0  0  0  0  0
    4.6632    1.1666    2.5090 H   0  0  0  0  0  0
    3.4111    0.2655    1.5983 H   0  0  0  0  0  0
    3.2189    0.5336    3.3591 H   0  0  0  0  0  0
    1.7613    2.0969    2.0581 H   0  0  0  0  0  0
    3.0109    2.9962    2.9670 H   0  0  0  0  0  0
    2.8977    3.6444    0.7230 H   0  0  0  0  0  0
  1  2  1  0  0  0
  1  3  1  0  0  0
  1  4  1  0  0  0
  1  5  1  0  0  0
  6  7  1  0  0  0
  7  8  1  0  0  0
  6  9  1  0  0  0
  6 10  1  0  0  0
  6 11  1  0  0  0
  7 12  1  0  0  0
  7 13  1  0  0  0
  8 14  1  0  0  0
M  END
$$$$
