


  4  2  0  0  1  0            999 V2000
   -6.1701   -1.1185    1.4997 O   0  0  0  0  0  0
   -5.5889   -1.2463    0.7160 H   0  0  0  0  0  0
   -6.9769   -0.6835    1.1418 H   0  0  0  0  0  0
    0.0000    0.0000    0.0000 K   0  0  0  0  0  0
  1  2  1  0  0  0
  1  3  1  0  0  0
M  CHG  1   4   1
M  END
$$$$
