


  4  2  0  0  1  0            999 V2000
    0.3019   -0.0846   -3.0056 O   0  0  0  0  0  0
   -0.1828    0.3986   -3.7125 H   0  0  0  0  0  0
    0.1292   -1.0353   -3.1918 H   0  0  0  0  0  0
   -0.2304    0.0975    2.4875 K   0  0  0  0  0  0
  1  2  1  0  0  0
  1  3  1  0  0  0
M  CHG  1   4   1
M  END
$$$$
