


 25 24  0  0  1  0            999 V2000
    0.8586   -3.4808   -4.2699 C   0  0  0  0  0  0
    1.0479   -4.2480   -3.0543 N   0  0  0  0  0  0
    1.2347   -3.6267   -1.8568 C   0  0  0  0  0  0
    1.2496   -2.4028   -1.7636 O   0  0  0  0  0  0
    1.4190   -4.5525   -0.6730 C   0  0  0  0  0  0
    0.7264   -4.1752   -5.1166 H   0  0  0  0  0  0
    1.7337   -2.8408   -4.4731 H   0  0  0  0  0  0
   -0.0364   -2.8402   -4.1972 H   0  0  0  0  0  0
    1.0419   -5.2703   -3.0908 H   0  0  0  0  0  0
    2.3042   -5.1964   -0.8086 H   0  0  0  0  0  0
    1.5611   -3.9462    0.2374 H   0  0  0  0  0  0
    0.5341   -5.1958   -0.5327 H   0  0  0  0  0  0
    0.6601    4.8933    5.2393 C   0  0  0  0  0  0
    1.2737    3.9947    4.2247 C   0  0  0  0  0  0
    0.7652    2.9257    3.5259 C   0  0  0  0  0  0
    1.7703    2.4567    2.7153 N   0  0  0  0  0  0
    1.6973    1.6543    2.0641 H   0  0  0  0  0  0
    2.8755    3.1872    2.8819 C   0  0  0  0  0  0
    2.5791    4.1191    3.7945 N   0  0  0  0  0  0
    3.2501    4.8351    4.1269 H   0  0  0  0  0  0
   -0.3864    4.5906    5.4119 H   0  0  0  0  0  0
    0.6709    5.9403    4.8925 H   0  0  0  0  0  0
    1.2059    4.8338    6.1959 H   0  0  0  0  0  0
   -0.2260    2.4729    3.5483 H   0  0  0  0  0  0
    3.8302    3.0505    2.3740 H   0  0  0  0  0  0
  1  2  1  0  0  0
  2  3  1  0  0  0
  3  4  2  0  0  0
  3  5  1  0  0  0
  1  6  1  0  0  0
  1  7  1  0  0  0
  1  8  1  0  0  0
  2  9  1  0  0  0
  5 10  1  0  0  0
  5 11  1  0  0  0
  5 12  1  0  0  0
 13 14  1  0  0  0
 14 15  2  0  0  0
 15 16  1  0  0  0
 16 17  1  0  0  0
 16 18  2  0  0  0
 18 19  1  0  0  0
 19 20  1  0  0  0
 14 19  1  0  0  0
 13 21  1  0  0  0
 13 22  1  0  0  0
 13 23  1  0  0  0
 15 24  1  0  0  0
 18 25  1  0  0  0
M  CHG  1  16   1
M  END
$$$$
