


 24 24  0  0  1  0            999 V2000
   10.4690   -5.1290   -2.2984 C   0  0  0  0  0  0
   10.7800   -6.2323   -3.1139 C   0  0  0  0  0  0
    9.8774   -7.2906   -3.2792 C   0  0  0  0  0  0
    8.7001   -7.2712   -2.5844 C   0  0  0  0  0  0
    8.2691   -6.1245   -1.8333 C   0  0  0  0  0  0
    9.1530   -4.9663   -1.8030 C   0  0  0  0  0  0
   11.1969   -4.3299   -2.1056 H   0  0  0  0  0  0
   11.7748   -6.1360   -3.5686 H   0  0  0  0  0  0
   10.1677   -8.1969   -3.8270 H   0  0  0  0  0  0
    8.0698   -8.1702   -2.5916 H   0  0  0  0  0  0
    7.3039   -6.0262   -1.3193 H   0  0  0  0  0  0
    8.8032   -4.0905   -1.2407 H   0  0  0  0  0  0
    7.0345   -2.1086    6.0989 C   0  0  0  0  0  0
    7.2991   -1.5631    7.3713 C   0  0  0  0  0  0
    8.2477   -2.1986    8.1934 C   0  0  0  0  0  0
    8.9845   -3.3488    7.7751 C   0  0  0  0  0  0
    8.7516   -3.8396    6.4899 C   0  0  0  0  0  0
    7.7999   -3.2131    5.6280 C   0  0  0  0  0  0
    6.2624   -1.6636    5.4575 H   0  0  0  0  0  0
    6.7633   -0.6978    7.7834 H   0  0  0  0  0  0
    8.3326   -1.7979    9.2121 H   0  0  0  0  0  0
    9.7734   -3.8031    8.3889 H   0  0  0  0  0  0
    9.2692   -4.7623    6.1962 H   0  0  0  0  0  0
    7.5671   -3.5980    4.6264 H   0  0  0  0  0  0
  1  2  1  0  0  0
  2  3  2  0  0  0
  3  4  1  0  0  0
  4  5  2  0  0  0
  5  6  1  0  0  0
  1  6  2  0  0  0
  1  7  1  0  0  0
  2  8  1  0  0  0
  3  9  1  0  0  0
  4 10  1  0  0  0
  5 11  1  0  0  0
  6 12  1  0  0  0
 13 14  1  0  0  0
 14 15  2  0  0  0
 15 16  1  0  0  0
 16 17  2  0  0  0
 17 18  1  0  0  0
 13 18  2  0  0  0
 13 19  1  0  0  0
 14 20  1  0  0  0
 15 21  1  0  0  0
 16 22  1  0  0  0
 17 23  1  0  0  0
 18 24  1  0  0  0
M  END
$$$$
