


 24 24  0  0  1  0            999 V2000
   10.4690   -5.1290   -2.2984 C   0  0  0  0  0  0
   10.7800   -6.2323   -3.1139 C   0  0  0  0  0  0
    9.8774   -7.2906   -3.2792 C   0  0  0  0  0  0
    8.7001   -7.2712   -2.5844 C   0  0  0  0  0  0
    8.2691   -6.1245   -1.8333 C   0  0  0  0  0  0
    9.1530   -4.9663   -1.8030 C   0  0  0  0  0  0
   11.1969   -4.3299   -2.1056 H   0  0  0  0  0  0
   11.7748   -6.1360   -3.5686 H   0  0  0  0  0  0
   10.1677   -8.1969   -3.8270 H   0  0  0  0  0  0
    8.0698   -8.1702   -2.5916 H   0  0  0  0  0  0
    7.3039   -6.0262   -1.3193 H   0  0  0  0  0  0
    8.8032   -4.0905   -1.2407 H   0  0  0  0  0  0
    7.2519   -2.5238    4.6740 C   0  0  0  0  0  0
    7.5165   -1.9783    5.9464 C   0  0  0  0  0  0
    8.4651   -2.6138    6.7685 C   0  0  0  0  0  0
    9.2018   -3.7640    6.3501 C   0  0  0  0  0  0
    8.9690   -4.2547    5.0650 C   0  0  0  0  0  0
    8.0172   -3.6283    4.2031 C   0  0  0  0  0  0
    6.4797   -2.0788    4.0326 H   0  0  0  0  0  0
    6.9807   -1.1130    6.3584 H   0  0  0  0  0  0
    8.5499   -2.2131    7.7872 H   0  0  0  0  0  0
    9.9907   -4.2183    6.9640 H   0  0  0  0  0  0
    9.4866   -5.1775    4.7713 H   0  0  0  0  0  0
    7.7844   -4.0132    3.2015 H   0  0  0  0  0  0
  1  2  1  0  0  0
  2  3  2  0  0  0
  3  4  1  0  0  0
  4  5  2  0  0  0
  5  6  1  0  0  0
  1  6  2  0  0  0
  1  7  1  0  0  0
  2  8  1  0  0  0
  3  9  1  0  0  0
  4 10  1  0  0  0
  5 11  1  0  0  0
  6 12  1  0  0  0
 13 14  1  0  0  0
 14 15  2  0  0  0
 15 16  1  0  0  0
 16 17  2  0  0  0
 17 18  1  0  0  0
 13 18  2  0  0  0
 13 19  1  0  0  0
 14 20  1  0  0  0
 15 21  1  0  0  0
 16 22  1  0  0  0
 17 23  1  0  0  0
 18 24  1  0  0  0
M  END
$$$$
