


 24 24  0  0  1  0            999 V2000
   -2.7964   12.7078   10.6772 C   0  0  0  0  0  0
   -4.0530   13.2666   10.4239 C   0  0  0  0  0  0
   -4.9356   12.6811    9.5025 C   0  0  0  0  0  0
   -4.4773   11.5483    8.8230 C   0  0  0  0  0  0
   -3.1817   11.0243    8.9517 C   0  0  0  0  0  0
   -2.3414   11.5670    9.9858 C   0  0  0  0  0  0
   -2.3138   13.2063   11.5281 H   0  0  0  0  0  0
   -4.4648   14.0029   11.1267 H   0  0  0  0  0  0
   -5.9662   13.0586    9.5337 H   0  0  0  0  0  0
   -5.0674   11.1082    8.0083 H   0  0  0  0  0  0
   -2.7853   10.1550    8.4107 H   0  0  0  0  0  0
   -1.4077   11.0763   10.2906 H   0  0  0  0  0  0
   -7.7336   12.3097   10.1685 C   0  0  0  0  0  0
   -7.4078   11.3486   11.1469 C   0  0  0  0  0  0
   -8.4286   10.7306   11.9013 C   0  0  0  0  0  0
   -9.7518   11.1187   11.7729 C   0  0  0  0  0  0
  -10.1605   12.1293   10.8590 C   0  0  0  0  0  0
   -9.1403   12.7237   10.0637 C   0  0  0  0  0  0
   -7.0005   12.8637    9.5676 H   0  0  0  0  0  0
   -6.3627   11.0126   11.1729 H   0  0  0  0  0  0
   -8.2098   10.0236   12.7124 H   0  0  0  0  0  0
  -10.5701   10.6117   12.3011 H   0  0  0  0  0  0
  -11.1622   12.5680   10.7596 H   0  0  0  0  0  0
   -9.2772   13.4958    9.2951 H   0  0  0  0  0  0
  1  2  1  0  0  0
  2  3  2  0  0  0
  3  4  1  0  0  0
  4  5  2  0  0  0
  5  6  1  0  0  0
  1  6  2  0  0  0
  1  7  1  0  0  0
  2  8  1  0  0  0
  3  9  1  0  0  0
  4 10  1  0  0  0
  5 11  1  0  0  0
  6 12  1  0  0  0
 13 14  1  0  0  0
 14 15  2  0  0  0
 15 16  1  0  0  0
 16 17  2  0  0  0
 17 18  1  0  0  0
 13 18  2  0  0  0
 13 19  1  0  0  0
 14 20  1  0  0  0
 15 21  1  0  0  0
 16 22  1  0  0  0
 17 23  1  0  0  0
 18 24  1  0  0  0
M  END
$$$$
