


 24 24  0  0  1  0            999 V2000
   -2.7964   12.7078   10.6772 C   0  0  0  0  0  0
   -4.0530   13.2666   10.4239 C   0  0  0  0  0  0
   -4.9356   12.6811    9.5025 C   0  0  0  0  0  0
   -4.4773   11.5483    8.8230 C   0  0  0  0  0  0
   -3.1817   11.0243    8.9517 C   0  0  0  0  0  0
   -2.3414   11.5670    9.9858 C   0  0  0  0  0  0
   -2.3138   13.2063   11.5281 H   0  0  0  0  0  0
   -4.4648   14.0029   11.1267 H   0  0  0  0  0  0
   -5.9662   13.0586    9.5337 H   0  0  0  0  0  0
   -5.0674   11.1082    8.0083 H   0  0  0  0  0  0
   -2.7853   10.1550    8.4107 H   0  0  0  0  0  0
   -1.4077   11.0763   10.2906 H   0  0  0  0  0  0
  -10.7021   11.8616   10.9414 C   0  0  0  0  0  0
  -10.3763   10.9005   11.9197 C   0  0  0  0  0  0
  -11.3972   10.2825   12.6742 C   0  0  0  0  0  0
  -12.7203   10.6706   12.5458 C   0  0  0  0  0  0
  -13.1290   11.6813   11.6319 C   0  0  0  0  0  0
  -12.1088   12.2757   10.8366 C   0  0  0  0  0  0
   -9.9690   12.4156   10.3404 H   0  0  0  0  0  0
   -9.3312   10.5646   11.9457 H   0  0  0  0  0  0
  -11.1783    9.5755   13.4853 H   0  0  0  0  0  0
  -13.5386   10.1637   13.0739 H   0  0  0  0  0  0
  -14.1306   12.1200   11.5324 H   0  0  0  0  0  0
  -12.2457   13.0477   10.0679 H   0  0  0  0  0  0
  1  2  1  0  0  0
  2  3  2  0  0  0
  3  4  1  0  0  0
  4  5  2  0  0  0
  5  6  1  0  0  0
  1  6  2  0  0  0
  1  7  1  0  0  0
  2  8  1  0  0  0
  3  9  1  0  0  0
  4 10  1  0  0  0
  5 11  1  0  0  0
  6 12  1  0  0  0
 13 14  1  0  0  0
 14 15  2  0  0  0
 15 16  1  0  0  0
 16 17  2  0  0  0
 17 18  1  0  0  0
 13 18  2  0  0  0
 13 19  1  0  0  0
 14 20  1  0  0  0
 15 21  1  0  0  0
 16 22  1  0  0  0
 17 23  1  0  0  0
 18 24  1  0  0  0
M  END
$$$$
