


 24 24  0  0  1  0            999 V2000
    4.9508   13.2614   12.4095 C   0  0  0  0  0  0
    5.2490   12.8006   11.1229 C   0  0  0  0  0  0
    4.9842   13.6257   10.0265 C   0  0  0  0  0  0
    4.4464   14.9204   10.2137 C   0  0  0  0  0  0
    4.1701   15.4257   11.4681 C   0  0  0  0  0  0
    4.4481   14.5972   12.5835 C   0  0  0  0  0  0
    5.1205   12.5757   13.2502 H   0  0  0  0  0  0
    5.7297   11.8237   10.9805 H   0  0  0  0  0  0
    5.3050   13.3511    9.0130 H   0  0  0  0  0  0
    4.3122   15.6449    9.3996 H   0  0  0  0  0  0
    3.7714   16.4236   11.6937 H   0  0  0  0  0  0
    4.2712   14.9205   13.6178 H   0  0  0  0  0  0
    8.1009   10.7255   10.0959 C   0  0  0  0  0  0
    8.6133   10.8422    8.7611 C   0  0  0  0  0  0
    9.9705   11.1799    8.6259 C   0  0  0  0  0  0
   10.8401   11.4254    9.7035 C   0  0  0  0  0  0
   10.2683   11.2926   10.9940 C   0  0  0  0  0  0
    8.9186   10.8610   11.1967 C   0  0  0  0  0  0
    7.1510   10.1947   10.2422 H   0  0  0  0  0  0
    7.9963   10.6700    7.8694 H   0  0  0  0  0  0
   10.4122   11.2879    7.6264 H   0  0  0  0  0  0
   11.8655   11.8174    9.6807 H   0  0  0  0  0  0
   10.7903   11.5796   11.9163 H   0  0  0  0  0  0
    8.5410   10.7844   12.2248 H   0  0  0  0  0  0
  1  2  1  0  0  0
  2  3  2  0  0  0
  3  4  1  0  0  0
  4  5  2  0  0  0
  5  6  1  0  0  0
  1  6  2  0  0  0
  1  7  1  0  0  0
  2  8  1  0  0  0
  3  9  1  0  0  0
  4 10  1  0  0  0
  5 11  1  0  0  0
  6 12  1  0  0  0
 13 14  1  0  0  0
 14 15  2  0  0  0
 15 16  1  0  0  0
 16 17  2  0  0  0
 17 18  1  0  0  0
 13 18  2  0  0  0
 13 19  1  0  0  0
 14 20  1  0  0  0
 15 21  1  0  0  0
 16 22  1  0  0  0
 17 23  1  0  0  0
 18 24  1  0  0  0
M  END
$$$$
