


 24 24  0  0  1  0            999 V2000
   14.1306    2.0392   -5.5574 C   0  0  0  0  0  0
   13.8437    2.1824   -6.9250 C   0  0  0  0  0  0
   12.7485    2.8816   -7.3628 C   0  0  0  0  0  0
   11.7842    3.1492   -6.3967 C   0  0  0  0  0  0
   12.0168    3.0469   -5.0226 C   0  0  0  0  0  0
   13.2135    2.4365   -4.6058 C   0  0  0  0  0  0
   14.9922    1.4416   -5.2317 H   0  0  0  0  0  0
   14.6654    2.0715   -7.6448 H   0  0  0  0  0  0
   12.5224    3.0427   -8.4251 H   0  0  0  0  0  0
   10.8070    3.5512   -6.6954 H   0  0  0  0  0  0
   11.2434    3.4382   -4.3487 H   0  0  0  0  0  0
   13.3443    2.3964   -3.5163 H   0  0  0  0  0  0
    9.8838   -2.6622  -11.4461 C   0  0  0  0  0  0
   10.9476   -3.5576  -11.2775 C   0  0  0  0  0  0
   12.1436   -3.0420  -10.8832 C   0  0  0  0  0  0
   12.4449   -1.6160  -10.8359 C   0  0  0  0  0  0
   11.3324   -0.7479  -11.0898 C   0  0  0  0  0  0
   10.0594   -1.2793  -11.3560 C   0  0  0  0  0  0
    9.0043   -3.3192  -11.4660 H   0  0  0  0  0  0
   10.9520   -4.6555  -11.2887 H   0  0  0  0  0  0
   12.8875   -3.8398  -10.7583 H   0  0  0  0  0  0
   13.4620   -1.3537  -10.5160 H   0  0  0  0  0  0
   11.4550    0.3431  -11.1042 H   0  0  0  0  0  0
    9.2533   -0.5572  -11.5416 H   0  0  0  0  0  0
  1  2  1  0  0  0
  2  3  2  0  0  0
  3  4  1  0  0  0
  4  5  2  0  0  0
  5  6  1  0  0  0
  1  6  2  0  0  0
  1  7  1  0  0  0
  2  8  1  0  0  0
  3  9  1  0  0  0
  4 10  1  0  0  0
  5 11  1  0  0  0
  6 12  1  0  0  0
 13 14  1  0  0  0
 14 15  2  0  0  0
 15 16  1  0  0  0
 16 17  2  0  0  0
 17 18  1  0  0  0
 13 18  2  0  0  0
 13 19  1  0  0  0
 14 20  1  0  0  0
 15 21  1  0  0  0
 16 22  1  0  0  0
 17 23  1  0  0  0
 18 24  1  0  0  0
M  END
$$$$
