


 24 24  0  0  1  0            999 V2000
   -2.7964   12.7078   10.6772 C   0  0  0  0  0  0
   -4.0530   13.2666   10.4239 C   0  0  0  0  0  0
   -4.9356   12.6811    9.5025 C   0  0  0  0  0  0
   -4.4773   11.5483    8.8230 C   0  0  0  0  0  0
   -3.1817   11.0243    8.9517 C   0  0  0  0  0  0
   -2.3414   11.5670    9.9858 C   0  0  0  0  0  0
   -2.3138   13.2063   11.5281 H   0  0  0  0  0  0
   -4.4648   14.0029   11.1267 H   0  0  0  0  0  0
   -5.9662   13.0586    9.5337 H   0  0  0  0  0  0
   -5.0674   11.1082    8.0083 H   0  0  0  0  0  0
   -2.7853   10.1550    8.4107 H   0  0  0  0  0  0
   -1.4077   11.0763   10.2906 H   0  0  0  0  0  0
   -8.2124   12.2374   10.2932 C   0  0  0  0  0  0
   -7.8865   11.2763   11.2716 C   0  0  0  0  0  0
   -8.9074   10.6583   12.0260 C   0  0  0  0  0  0
  -10.2306   11.0464   11.8976 C   0  0  0  0  0  0
  -10.6393   12.0571   10.9837 C   0  0  0  0  0  0
   -9.6191   12.6515   10.1884 C   0  0  0  0  0  0
   -7.4793   12.7914    9.6922 H   0  0  0  0  0  0
   -6.8415   10.9404   11.2975 H   0  0  0  0  0  0
   -8.6886    9.9513   12.8371 H   0  0  0  0  0  0
  -11.0489   10.5394   12.4257 H   0  0  0  0  0  0
  -11.6410   12.4957   10.8842 H   0  0  0  0  0  0
   -9.7560   13.4235    9.4197 H   0  0  0  0  0  0
  1  2  1  0  0  0
  2  3  2  0  0  0
  3  4  1  0  0  0
  4  5  2  0  0  0
  5  6  1  0  0  0
  1  6  2  0  0  0
  1  7  1  0  0  0
  2  8  1  0  0  0
  3  9  1  0  0  0
  4 10  1  0  0  0
  5 11  1  0  0  0
  6 12  1  0  0  0
 13 14  1  0  0  0
 14 15  2  0  0  0
 15 16  1  0  0  0
 16 17  2  0  0  0
 17 18  1  0  0  0
 13 18  2  0  0  0
 13 19  1  0  0  0
 14 20  1  0  0  0
 15 21  1  0  0  0
 16 22  1  0  0  0
 17 23  1  0  0  0
 18 24  1  0  0  0
M  END
$$$$
