


 24 24  0  0  1  0            999 V2000
   -6.0249   -2.0543    2.5639 C   0  0  0  0  0  0
   -6.7969   -0.8889    2.6181 C   0  0  0  0  0  0
   -7.8433   -0.7018    3.5127 C   0  0  0  0  0  0
   -8.1529   -1.7551    4.4638 C   0  0  0  0  0  0
   -7.4222   -2.9480    4.3990 C   0  0  0  0  0  0
   -6.4157   -3.1154    3.4042 C   0  0  0  0  0  0
   -5.0726   -2.0871    2.0184 H   0  0  0  0  0  0
   -6.5044   -0.0221    2.0110 H   0  0  0  0  0  0
   -8.3861    0.2522    3.5448 H   0  0  0  0  0  0
   -8.9553   -1.6332    5.2033 H   0  0  0  0  0  0
   -7.7431   -3.8203    4.9836 H   0  0  0  0  0  0
   -5.8460   -4.0441    3.5400 H   0  0  0  0  0  0
   -3.3879   -5.2539    1.0899 C   0  0  0  0  0  0
   -2.3869   -5.1154    0.1617 C   0  0  0  0  0  0
   -1.4570   -6.1577   -0.0494 C   0  0  0  0  0  0
   -1.4288   -7.2129    0.8485 C   0  0  0  0  0  0
   -2.3509   -7.2671    1.9705 C   0  0  0  0  0  0
   -3.3137   -6.2760    2.0615 C   0  0  0  0  0  0
   -4.1091   -4.4420    1.2523 H   0  0  0  0  0  0
   -2.4124   -4.3195   -0.5943 H   0  0  0  0  0  0
   -0.7762   -6.1020   -0.9090 H   0  0  0  0  0  0
   -0.6522   -7.9678    0.6678 H   0  0  0  0  0  0
   -2.3936   -8.0613    2.7275 H   0  0  0  0  0  0
   -4.0110   -6.2013    2.9064 H   0  0  0  0  0  0
  1  2  1  0  0  0
  2  3  2  0  0  0
  3  4  1  0  0  0
  4  5  2  0  0  0
  5  6  1  0  0  0
  1  6  2  0  0  0
  1  7  1  0  0  0
  2  8  1  0  0  0
  3  9  1  0  0  0
  4 10  1  0  0  0
  5 11  1  0  0  0
  6 12  1  0  0  0
 13 14  1  0  0  0
 14 15  2  0  0  0
 15 16  1  0  0  0
 16 17  2  0  0  0
 17 18  1  0  0  0
 13 18  2  0  0  0
 13 19  1  0  0  0
 14 20  1  0  0  0
 15 21  1  0  0  0
 16 22  1  0  0  0
 17 23  1  0  0  0
 18 24  1  0  0  0
M  END
$$$$
