


 21 21  0  0  1  0            999 V2000
    2.2484   -2.6307    1.1806 Cl  0  0  0  0  0  0
    2.4711   -1.1832    2.1068 C   0  0  0  0  0  0
    2.7926    0.0068    1.4557 C   0  0  0  0  0  0
    2.9717    1.1709    2.2004 C   0  0  0  0  0  0
    2.8268    1.1294    3.5863 C   0  0  0  0  0  0
    2.5052   -0.0605    4.2373 C   0  0  0  0  0  0
    2.3261   -1.2246    3.4926 C   0  0  0  0  0  0
    3.0494    2.5770    4.5124 Cl  0  0  0  0  0  0
    2.9028    0.0207    0.3633 H   0  0  0  0  0  0
    3.2253    2.1171    1.7046 H   0  0  0  0  0  0
    2.3950   -0.0744    5.3297 H   0  0  0  0  0  0
    2.0726   -2.1709    3.9884 H   0  0  0  0  0  0
   -0.3244    0.4903    0.8879 C   0  0  0  0  0  0
   -0.0692    1.4784    0.0451 N   0  0  0  0  0  0
    0.0388    2.6016    0.8297 C   0  0  0  0  0  0
   -0.1528    2.2895    2.1582 C   0  0  0  0  0  0
   -0.3834    0.9364    2.1749 N   0  0  0  0  0  0
   -0.5666    0.3654    3.0037 H   0  0  0  0  0  0
   -0.4738   -0.5565    0.6235 H   0  0  0  0  0  0
    0.2495    3.5802    0.3981 H   0  0  0  0  0  0
   -0.1461    2.8908    3.0673 H   0  0  0  0  0  0
  1  2  1  0  0  0
  2  3  2  0  0  0
  3  4  1  0  0  0
  4  5  2  0  0  0
  5  6  1  0  0  0
  6  7  2  0  0  0
  2  7  1  0  0  0
  5  8  1  0  0  0
  3  9  1  0  0  0
  4 10  1  0  0  0
  6 11  1  0  0  0
  7 12  1  0  0  0
 13 14  2  0  0  0
 14 15  1  0  0  0
 15 16  2  0  0  0
 16 17  1  0  0  0
 17 18  1  0  0  0
 13 17  1  0  0  0
 13 19  1  0  0  0
 15 20  1  0  0  0
 16 21  1  0  0  0
M  END
$$$$
