


 20 18  0  0  1  0            999 V2000
   -1.1925   -2.2390   -3.4902 C   0  0  0  0  0  0
   -1.9802   -3.3382   -2.8393 C   0  0  0  0  0  0
   -1.0202   -3.9124   -1.9475 N   0  0  0  0  0  0
   -0.6181   -1.5637   -2.8340 H   0  0  0  0  0  0
   -1.8221   -1.6283   -4.1589 H   0  0  0  0  0  0
   -0.4838   -2.8180   -4.1059 H   0  0  0  0  0  0
   -2.7945   -2.8243   -2.2931 H   0  0  0  0  0  0
   -2.4397   -4.1294   -3.4623 H   0  0  0  0  0  0
   -0.3231   -4.4779   -2.4444 H   0  0  0  0  0  0
   -0.4903   -3.2415   -1.3801 H   0  0  0  0  0  0
   -2.8168    1.7008   -4.4831 C   0  0  0  0  0  0
   -1.3275    1.4748   -4.2586 C   0  0  0  0  0  0
   -0.9060    0.7488   -5.4321 N   0  0  0  0  0  0
   -3.0648    2.0500   -5.4995 H   0  0  0  0  0  0
   -3.0954    2.4883   -3.7628 H   0  0  0  0  0  0
   -3.4129    0.7985   -4.2659 H   0  0  0  0  0  0
   -0.7503    2.4037   -4.0869 H   0  0  0  0  0  0
   -1.1719    0.8152   -3.3833 H   0  0  0  0  0  0
   -0.1952    0.0179   -5.3172 H   0  0  0  0  0  0
   -0.6256    1.2914   -6.2565 H   0  0  0  0  0  0
  1  2  1  0  0  0
  2  3  1  0  0  0
  1  4  1  0  0  0
  1  5  1  0  0  0
  1  6  1  0  0  0
  2  7  1  0  0  0
  2  8  1  0  0  0
  3  9  1  0  0  0
  3 10  1  0  0  0
 11 12  1  0  0  0
 12 13  1  0  0  0
 11 14  1  0  0  0
 11 15  1  0  0  0
 11 16  1  0  0  0
 12 17  1  0  0  0
 12 18  1  0  0  0
 13 19  1  0  0  0
 13 20  1  0  0  0
M  END
$$$$
