


 20 18  0  0  1  0            999 V2000
   -1.5037   -4.4186   -1.8945 C   0  0  0  0  0  0
   -1.5268   -3.7232   -3.2683 C   0  0  0  0  0  0
   -2.5559   -2.7210   -3.2207 N   0  0  0  0  0  0
   -0.6490   -5.1152   -1.8645 H   0  0  0  0  0  0
   -2.4206   -4.9754   -1.6379 H   0  0  0  0  0  0
   -1.3447   -3.6338   -1.1359 H   0  0  0  0  0  0
   -0.5442   -3.3161   -3.5751 H   0  0  0  0  0  0
   -1.7839   -4.5435   -3.9658 H   0  0  0  0  0  0
   -3.3908   -2.9906   -2.6888 H   0  0  0  0  0  0
   -2.1529   -1.9158   -2.7289 H   0  0  0  0  0  0
    4.1784    4.4868   -3.2019 C   0  0  0  0  0  0
    4.0733    3.0116   -3.3351 C   0  0  0  0  0  0
    3.7476    2.3730   -2.0243 N   0  0  0  0  0  0
    5.0184    4.8373   -3.8250 H   0  0  0  0  0  0
    4.3486    4.8177   -2.1636 H   0  0  0  0  0  0
    3.2487    4.9512   -3.5713 H   0  0  0  0  0  0
    3.2331    2.6883   -3.9792 H   0  0  0  0  0  0
    4.9922    2.5200   -3.7085 H   0  0  0  0  0  0
    4.5505    2.4825   -1.3949 H   0  0  0  0  0  0
    2.9601    2.8441   -1.5655 H   0  0  0  0  0  0
  1  2  1  0  0  0
  2  3  1  0  0  0
  1  4  1  0  0  0
  1  5  1  0  0  0
  1  6  1  0  0  0
  2  7  1  0  0  0
  2  8  1  0  0  0
  3  9  1  0  0  0
  3 10  1  0  0  0
 11 12  1  0  0  0
 12 13  1  0  0  0
 11 14  1  0  0  0
 11 15  1  0  0  0
 11 16  1  0  0  0
 12 17  1  0  0  0
 12 18  1  0  0  0
 13 19  1  0  0  0
 13 20  1  0  0  0
M  END
$$$$
