


 20 18  0  0  1  0            999 V2000
    4.0667    1.4273    1.4814 C   0  0  0  0  0  0
    2.9526    0.8788    2.3593 C   0  0  0  0  0  0
    2.0431    1.9660    2.7426 N   0  0  0  0  0  0
    3.6385    1.9136    0.5888 H   0  0  0  0  0  0
    4.7385    0.6168    1.1523 H   0  0  0  0  0  0
    4.6603    2.1724    2.0373 H   0  0  0  0  0  0
    2.3599    0.1406    1.7855 H   0  0  0  0  0  0
    3.3959    0.3532    3.2269 H   0  0  0  0  0  0
    1.2886    1.6065    3.3377 H   0  0  0  0  0  0
    2.5500    2.6540    3.3104 H   0  0  0  0  0  0
   -0.9367    0.2774   -0.2804 C   0  0  0  0  0  0
   -0.8660    1.6361   -0.9599 C   0  0  0  0  0  0
    0.5057    2.1550   -0.8885 N   0  0  0  0  0  0
   -0.2281   -0.4201   -0.7578 H   0  0  0  0  0  0
   -1.9526   -0.1451   -0.3582 H   0  0  0  0  0  0
   -0.6746    0.3693    0.7871 H   0  0  0  0  0  0
   -1.1214    1.5267   -2.0315 H   0  0  0  0  0  0
   -1.6137    2.3127   -0.5031 H   0  0  0  0  0  0
    0.5637    3.0733   -1.3423 H   0  0  0  0  0  0
    0.7656    2.3055    0.0926 H   0  0  0  0  0  0
  1  2  1  0  0  0
  2  3  1  0  0  0
  1  4  1  0  0  0
  1  5  1  0  0  0
  1  6  1  0  0  0
  2  7  1  0  0  0
  2  8  1  0  0  0
  3  9  1  0  0  0
  3 10  1  0  0  0
 11 12  1  0  0  0
 12 13  1  0  0  0
 11 14  1  0  0  0
 11 15  1  0  0  0
 11 16  1  0  0  0
 12 17  1  0  0  0
 12 18  1  0  0  0
 13 19  1  0  0  0
 13 20  1  0  0  0
M  END
$$$$
