


 20 18  0  0  1  0            999 V2000
   -7.3731    6.3427   -8.4034 C   0  0  0  0  0  0
   -7.4343    7.8718   -8.6698 C   0  0  0  0  0  0
   -6.2369    8.3498   -9.3107 N   0  0  0  0  0  0
   -8.3208    6.0247   -7.9370 H   0  0  0  0  0  0
   -6.5436    6.0917   -7.7211 H   0  0  0  0  0  0
   -7.2378    5.7815   -9.3432 H   0  0  0  0  0  0
   -8.3432    8.1110   -9.2548 H   0  0  0  0  0  0
   -7.5364    8.3523   -7.6778 H   0  0  0  0  0  0
   -5.4359    8.0920   -8.7236 H   0  0  0  0  0  0
   -6.3241    9.3697   -9.2412 H   0  0  0  0  0  0
   -4.9048    8.3290  -13.5723 C   0  0  0  0  0  0
   -5.2707    7.1986  -12.5512 C   0  0  0  0  0  0
   -6.6815    7.2359  -12.3687 N   0  0  0  0  0  0
   -3.8492    8.1773  -13.8541 H   0  0  0  0  0  0
   -5.0626    9.4004  -13.3632 H   0  0  0  0  0  0
   -5.5417    8.0393  -14.4249 H   0  0  0  0  0  0
   -4.9252    6.1866  -12.8374 H   0  0  0  0  0  0
   -4.8823    7.4125  -11.5368 H   0  0  0  0  0  0
   -6.9252    6.8100  -11.4677 H   0  0  0  0  0  0
   -6.8906    8.2361  -12.2765 H   0  0  0  0  0  0
  1  2  1  0  0  0
  2  3  1  0  0  0
  1  4  1  0  0  0
  1  5  1  0  0  0
  1  6  1  0  0  0
  2  7  1  0  0  0
  2  8  1  0  0  0
  3  9  1  0  0  0
  3 10  1  0  0  0
 11 12  1  0  0  0
 12 13  1  0  0  0
 11 14  1  0  0  0
 11 15  1  0  0  0
 11 16  1  0  0  0
 12 17  1  0  0  0
 12 18  1  0  0  0
 13 19  1  0  0  0
 13 20  1  0  0  0
M  END
$$$$
