


 20 18  0  0  1  0            999 V2000
    0.0000    0.0000    0.0000 C   0  0  0  0  0  0
   -0.2385    1.2621    0.8196 C   0  0  0  0  0  0
    0.2542    2.3901    0.0579 N   0  0  0  0  0  0
   -0.3110   -0.0017   -1.0582 H   0  0  0  0  0  0
   -0.5174   -0.8237    0.5201 H   0  0  0  0  0  0
    1.0869   -0.1816    0.0475 H   0  0  0  0  0  0
   -1.3450    1.2923    0.8333 H   0  0  0  0  0  0
    0.1090    1.1818    1.8675 H   0  0  0  0  0  0
    1.2714    2.4807    0.1564 H   0  0  0  0  0  0
   -0.1444    3.2722    0.3980 H   0  0  0  0  0  0
   -2.5209   -3.6429    1.1623 C   0  0  0  0  0  0
   -2.7548   -4.3881   -0.2226 C   0  0  0  0  0  0
   -1.8202   -5.3590   -0.6089 N   0  0  0  0  0  0
   -2.4420   -4.4126    1.9484 H   0  0  0  0  0  0
   -3.3314   -2.9455    1.4330 H   0  0  0  0  0  0
   -1.5722   -3.0816    1.1230 H   0  0  0  0  0  0
   -3.7311   -4.8993   -0.1180 H   0  0  0  0  0  0
   -2.8097   -3.7374   -1.1165 H   0  0  0  0  0  0
   -1.6812   -6.0818    0.1059 H   0  0  0  0  0  0
   -2.2662   -5.8281   -1.4050 H   0  0  0  0  0  0
  1  2  1  0  0  0
  2  3  1  0  0  0
  1  4  1  0  0  0
  1  5  1  0  0  0
  1  6  1  0  0  0
  2  7  1  0  0  0
  2  8  1  0  0  0
  3  9  1  0  0  0
  3 10  1  0  0  0
 11 12  1  0  0  0
 12 13  1  0  0  0
 11 14  1  0  0  0
 11 15  1  0  0  0
 11 16  1  0  0  0
 12 17  1  0  0  0
 12 18  1  0  0  0
 13 19  1  0  0  0
 13 20  1  0  0  0
M  END
$$$$
