


 20 18  0  0  1  0            999 V2000
    4.0667    1.4273    1.4814 C   0  0  0  0  0  0
    2.9526    0.8788    2.3593 C   0  0  0  0  0  0
    2.0431    1.9660    2.7426 N   0  0  0  0  0  0
    3.6385    1.9136    0.5888 H   0  0  0  0  0  0
    4.7385    0.6168    1.1523 H   0  0  0  0  0  0
    4.6603    2.1724    2.0373 H   0  0  0  0  0  0
    2.3599    0.1406    1.7855 H   0  0  0  0  0  0
    3.3959    0.3532    3.2269 H   0  0  0  0  0  0
    1.2886    1.6065    3.3377 H   0  0  0  0  0  0
    2.5500    2.6540    3.3104 H   0  0  0  0  0  0
   -0.4944    0.2985    0.2618 C   0  0  0  0  0  0
   -0.4238    1.6572   -0.4177 C   0  0  0  0  0  0
    0.9480    2.1761   -0.3463 N   0  0  0  0  0  0
    0.2142   -0.3990   -0.2157 H   0  0  0  0  0  0
   -1.5103   -0.1239    0.1840 H   0  0  0  0  0  0
   -0.2324    0.3904    1.3292 H   0  0  0  0  0  0
   -0.6791    1.5478   -1.4892 H   0  0  0  0  0  0
   -1.1714    2.3338    0.0391 H   0  0  0  0  0  0
    1.0059    3.0944   -0.8001 H   0  0  0  0  0  0
    1.2079    2.3266    0.6348 H   0  0  0  0  0  0
  1  2  1  0  0  0
  2  3  1  0  0  0
  1  4  1  0  0  0
  1  5  1  0  0  0
  1  6  1  0  0  0
  2  7  1  0  0  0
  2  8  1  0  0  0
  3  9  1  0  0  0
  3 10  1  0  0  0
 11 12  1  0  0  0
 12 13  1  0  0  0
 11 14  1  0  0  0
 11 15  1  0  0  0
 11 16  1  0  0  0
 12 17  1  0  0  0
 12 18  1  0  0  0
 13 19  1  0  0  0
 13 20  1  0  0  0
M  END
$$$$
