


 20 18  0  0  1  0            999 V2000
   -3.8408   -1.9908   -3.3745 C   0  0  0  0  0  0
   -4.2161   -0.5227   -3.3260 C   0  0  0  0  0  0
   -3.0752    0.3864   -3.2048 N   0  0  0  0  0  0
   -3.3059   -2.3260   -2.4700 H   0  0  0  0  0  0
   -3.1900   -2.1559   -4.2496 H   0  0  0  0  0  0
   -4.7507   -2.6031   -3.4923 H   0  0  0  0  0  0
   -4.7604   -0.1992   -4.2340 H   0  0  0  0  0  0
   -4.7793   -0.1546   -2.4469 H   0  0  0  0  0  0
   -2.6492    0.2921   -2.2762 H   0  0  0  0  0  0
   -2.3025    0.3414   -3.8783 H   0  0  0  0  0  0
   -0.1576   -6.6589    3.5348 C   0  0  0  0  0  0
    1.1301   -5.9436    3.4167 C   0  0  0  0  0  0
    1.3306   -5.2327    4.6409 N   0  0  0  0  0  0
   -0.4272   -7.1601    2.5900 H   0  0  0  0  0  0
   -0.9612   -5.9512    3.7994 H   0  0  0  0  0  0
   -0.0843   -7.4209    4.3289 H   0  0  0  0  0  0
    1.8840   -6.6823    3.0828 H   0  0  0  0  0  0
    0.9615   -5.2346    2.5835 H   0  0  0  0  0  0
    2.1574   -4.6374    4.5196 H   0  0  0  0  0  0
    0.5708   -4.6082    4.9330 H   0  0  0  0  0  0
  1  2  1  0  0  0
  2  3  1  0  0  0
  1  4  1  0  0  0
  1  5  1  0  0  0
  1  6  1  0  0  0
  2  7  1  0  0  0
  2  8  1  0  0  0
  3  9  1  0  0  0
  3 10  1  0  0  0
 11 12  1  0  0  0
 12 13  1  0  0  0
 11 14  1  0  0  0
 11 15  1  0  0  0
 11 16  1  0  0  0
 12 17  1  0  0  0
 12 18  1  0  0  0
 13 19  1  0  0  0
 13 20  1  0  0  0
M  END
$$$$
