


 26 27  0  0  1  0            999 V2000
    1.9490    1.1118    1.6356 C   0  0  0  0  0  0
    2.5606    2.0130    2.4102 N   0  0  0  0  0  0
    2.0729    2.6098    3.1025 H   0  0  0  0  0  0
    3.9093    2.0269    2.1529 C   0  0  0  0  0  0
    4.1255    1.0906    1.1770 C   0  0  0  0  0  0
    2.8989    0.5480    0.8832 N   0  0  0  0  0  0
    2.7200   -0.1928    0.1814 H   0  0  0  0  0  0
    0.8837    0.8816    1.6205 H   0  0  0  0  0  0
    4.6002    2.6897    2.6741 H   0  0  0  0  0  0
    5.0423    0.7753    0.6787 H   0  0  0  0  0  0
   -1.2885    1.3951    1.1245 C   0  0  0  0  0  0
   -1.2146    0.6909    2.3452 C   0  0  0  0  0  0
   -0.5526    1.2186    3.4432 C   0  0  0  0  0  0
    0.0547    2.4826    3.3281 C   0  0  0  0  0  0
   -0.0332    3.1736    2.0869 C   0  0  0  0  0  0
   -0.7004    2.6437    0.9778 C   0  0  0  0  0  0
    0.6329    4.3663    2.2395 N   0  0  0  0  0  0
    0.7409    5.0803    1.5149 H   0  0  0  0  0  0
    1.1339    4.4539    3.5189 C   0  0  0  0  0  0
    0.7994    3.3161    4.2180 C   0  0  0  0  0  0
   -1.8210    0.9471    0.2752 H   0  0  0  0  0  0
   -1.6927   -0.2945    2.4220 H   0  0  0  0  0  0
   -0.5024    0.6603    4.3873 H   0  0  0  0  0  0
   -0.7587    3.1905    0.0274 H   0  0  0  0  0  0
    1.6968    5.3324    3.8341 H   0  0  0  0  0  0
    1.0630    3.1091    5.2552 H   0  0  0  0  0  0
  1  2  1  0  0  0
  2  3  1  0  0  0
  2  4  1  0  0  0
  4  5  2  0  0  0
  5  6  1  0  0  0
  6  7  1  0  0  0
  1  6  2  0  0  0
  1  8  1  0  0  0
  4  9  1  0  0  0
  5 10  1  0  0  0
 11 12  1  0  0  0
 12 13  2  0  0  0
 13 14  1  0  0  0
 14 15  2  0  0  0
 15 16  1  0  0  0
 11 16  2  0  0  0
 15 17  1  0  0  0
 17 18  1  0  0  0
 17 19  1  0  0  0
 19 20  2  0  0  0
 14 20  1  0  0  0
 11 21  1  0  0  0
 12 22  1  0  0  0
 13 23  1  0  0  0
 16 24  1  0  0  0
 19 25  1  0  0  0
 20 26  1  0  0  0
M  CHG  1   6   1
M  END
$$$$
