


 26 26  0  0  1  0            999 V2000
   -1.4653    1.9250    2.8845 S   0  0  0  0  0  0
   -0.6308    2.9568    4.1144 C   0  0  0  0  0  0
    0.8501    3.1589    3.8274 C   0  0  0  0  0  0
    1.1649    4.1575    2.3518 S   0  0  0  0  0  0
    0.3303    3.1257    1.1219 C   0  0  0  0  0  0
   -1.1506    2.9236    1.4089 C   0  0  0  0  0  0
   -1.1456    3.9334    4.1954 H   0  0  0  0  0  0
   -0.7661    2.4242    5.0754 H   0  0  0  0  0  0
    1.3628    2.1821    3.7349 H   0  0  0  0  0  0
    1.3295    3.7134    4.6570 H   0  0  0  0  0  0
    0.8452    2.1491    1.0409 H   0  0  0  0  0  0
    0.4657    3.6582    0.1609 H   0  0  0  0  0  0
   -1.6300    2.3691    0.5793 H   0  0  0  0  0  0
   -1.6632    3.9004    1.5014 H   0  0  0  0  0  0
    5.4383   -1.6477   -1.2598 C   0  0  0  0  0  0
    4.6606   -2.1044   -2.3245 C   0  0  0  0  0  0
    3.5802   -2.9544   -2.0850 C   0  0  0  0  0  0
    3.2776   -3.3477   -0.7809 C   0  0  0  0  0  0
    4.0554   -2.8910    0.2838 C   0  0  0  0  0  0
    5.1357   -2.0410    0.0443 C   0  0  0  0  0  0
    6.2884   -0.9788   -1.4483 H   0  0  0  0  0  0
    4.8987   -1.7950   -3.3507 H   0  0  0  0  0  0
    2.9682   -3.3138   -2.9228 H   0  0  0  0  0  0
    2.4275   -4.0166   -0.5924 H   0  0  0  0  0  0
    3.8173   -3.2005    1.3100 H   0  0  0  0  0  0
    5.7478   -1.6816    0.8821 H   0  0  0  0  0  0
  1  2  1  0  0  0
  2  3  1  0  0  0
  3  4  1  0  0  0
  4  5  1  0  0  0
  5  6  1  0  0  0
  1  6  1  0  0  0
  2  7  1  0  0  0
  2  8  1  0  0  0
  3  9  1  0  0  0
  3 10  1  0  0  0
  5 11  1  0  0  0
  5 12  1  0  0  0
  6 13  1  0  0  0
  6 14  1  0  0  0
 15 16  1  0  0  0
 16 17  2  0  0  0
 17 18  1  0  0  0
 18 19  2  0  0  0
 19 20  1  0  0  0
 15 20  2  0  0  0
 15 21  1  0  0  0
 16 22  1  0  0  0
 17 23  1  0  0  0
 18 24  1  0  0  0
 19 25  1  0  0  0
 20 26  1  0  0  0
M  END
$$$$
