


 34 32  0  0  1  0            999 V2000
   -3.5484    4.6302   -1.1144 C   0  0  0  0  0  0
   -3.2420    5.5403    0.0869 C   0  0  0  0  0  0
   -2.1362    5.0402    1.0375 C   0  0  0  0  0  0
   -2.5819    3.9449    2.0539 C   0  0  0  0  0  0
   -2.6080    2.5734    1.4648 C   0  0  0  0  0  0
   -2.7162    3.9468   -1.3532 H   0  0  0  0  0  0
   -3.7234    5.2881   -1.9823 H   0  0  0  0  0  0
   -4.4571    4.0302   -0.9388 H   0  0  0  0  0  0
   -2.8141    6.4606   -0.3549 H   0  0  0  0  0  0
   -4.1939    5.8152    0.5807 H   0  0  0  0  0  0
   -1.3000    4.7267    0.3832 H   0  0  0  0  0  0
   -1.8333    5.9760    1.5455 H   0  0  0  0  0  0
   -1.7739    3.9012    2.8094 H   0  0  0  0  0  0
   -3.4796    4.3669    2.5453 H   0  0  0  0  0  0
   -3.1072    1.7536    2.0082 H   0  0  0  0  0  0
   -1.5401    2.3216    1.3518 H   0  0  0  0  0  0
   -3.0581    2.6556    0.4612 H   0  0  0  0  0  0
    4.2010    1.8609   -2.3750 C   0  0  0  0  0  0
    3.1348    1.1158   -3.1930 C   0  0  0  0  0  0
    1.8582    1.9601   -3.3535 C   0  0  0  0  0  0
    0.9357    1.2525   -4.2424 C   0  0  0  0  0  0
   -0.5503    1.6269   -4.0205 C   0  0  0  0  0  0
    3.9572    2.2312   -1.3650 H   0  0  0  0  0  0
    4.4764    2.7211   -3.0081 H   0  0  0  0  0  0
    5.0698    1.1854   -2.3018 H   0  0  0  0  0  0
    3.5133    0.9160   -4.2140 H   0  0  0  0  0  0
    2.9250    0.1397   -2.7148 H   0  0  0  0  0  0
    1.3362    2.0821   -2.3850 H   0  0  0  0  0  0
    2.1311    2.9690   -3.7182 H   0  0  0  0  0  0
    1.2436    1.3579   -5.3004 H   0  0  0  0  0  0
    0.9285    0.1724   -3.9999 H   0  0  0  0  0  0
   -1.2006    1.1444   -4.7694 H   0  0  0  0  0  0
   -0.6888    2.7192   -4.0857 H   0  0  0  0  0  0
   -0.8614    1.2922   -3.0166 H   0  0  0  0  0  0
  1  2  1  0  0  0
  2  3  1  0  0  0
  3  4  1  0  0  0
  4  5  1  0  0  0
  1  6  1  0  0  0
  1  7  1  0  0  0
  1  8  1  0  0  0
  2  9  1  0  0  0
  2 10  1  0  0  0
  3 11  1  0  0  0
  3 12  1  0  0  0
  4 13  1  0  0  0
  4 14  1  0  0  0
  5 15  1  0  0  0
  5 16  1  0  0  0
  5 17  1  0  0  0
 18 19  1  0  0  0
 19 20  1  0  0  0
 20 21  1  0  0  0
 21 22  1  0  0  0
 18 23  1  0  0  0
 18 24  1  0  0  0
 18 25  1  0  0  0
 19 26  1  0  0  0
 19 27  1  0  0  0
 20 28  1  0  0  0
 20 29  1  0  0  0
 21 30  1  0  0  0
 21 31  1  0  0  0
 22 32  1  0  0  0
 22 33  1  0  0  0
 22 34  1  0  0  0
M  END
$$$$
