


 22 21  0  0  1  0            999 V2000
    1.7708    0.9230    3.0850 C   0  0  0  0  0  0
    2.1714   -0.4827    2.6437 C   0  0  0  0  0  0
    1.5620   -0.8700    1.3036 C   0  0  0  0  0  0
    1.9732   -0.0149    0.2349 O   0  0  0  0  0  0
    0.6762    0.9824    3.2080 H   0  0  0  0  0  0
    2.0804    1.6626    2.3276 H   0  0  0  0  0  0
    2.2472    1.1825    4.0454 H   0  0  0  0  0  0
    3.2732   -0.5537    2.5647 H   0  0  0  0  0  0
    1.8392   -1.2252    3.3946 H   0  0  0  0  0  0
    1.7935   -1.9260    1.0655 H   0  0  0  0  0  0
    0.4605   -0.7680    1.3450 H   0  0  0  0  0  0
    2.9364   -0.1439    0.1082 H   0  0  0  0  0  0
   -0.9445    3.2991   -1.8874 C   0  0  0  0  0  0
   -1.7055    4.3966   -1.8368 N   0  0  0  0  0  0
   -2.2915    4.7332   -2.6220 H   0  0  0  0  0  0
   -1.5941    4.9987   -0.6078 C   0  0  0  0  0  0
   -0.7251    4.2305    0.1207 C   0  0  0  0  0  0
   -0.3459    3.1946   -0.6970 N   0  0  0  0  0  0
    0.3094    2.4340   -0.4416 H   0  0  0  0  0  0
   -0.8338    2.6216   -2.7340 H   0  0  0  0  0  0
   -2.1316    5.9111   -0.3495 H   0  0  0  0  0  0
   -0.3549    4.3405    1.1399 H   0  0  0  0  0  0
  1  2  1  0  0  0
  2  3  1  0  0  0
  3  4  1  0  0  0
  1  5  1  0  0  0
  1  6  1  0  0  0
  1  7  1  0  0  0
  2  8  1  0  0  0
  2  9  1  0  0  0
  3 10  1  0  0  0
  3 11  1  0  0  0
  4 12  1  0  0  0
 13 14  1  0  0  0
 14 15  1  0  0  0
 14 16  1  0  0  0
 16 17  2  0  0  0
 17 18  1  0  0  0
 18 19  1  0  0  0
 13 18  2  0  0  0
 13 20  1  0  0  0
 16 21  1  0  0  0
 17 22  1  0  0  0
M  CHG  1  18   1
M  END
$$$$
