


 18 16  0  0  1  0            999 V2000
    4.0023    5.0852    0.2255 C   0  0  0  0  0  0
    2.9306    4.1014    0.5890 C   0  0  0  0  0  0
    1.7362    4.2741    0.4907 O   0  0  0  0  0  0
    3.4667    2.9450    1.0609 O   0  0  0  0  0  0
    3.5513    6.0170   -0.1552 H   0  0  0  0  0  0
    4.6585    4.6669   -0.5562 H   0  0  0  0  0  0
    4.6171    5.3271    1.1087 H   0  0  0  0  0  0
    2.6881    2.3612    1.2730 H   0  0  0  0  0  0
   -0.0859    0.2391    0.7483 C   0  0  0  0  0  0
    0.6598    0.4287    1.9889 N   0  0  0  0  0  0
   -0.1417    1.1276    2.9889 C   0  0  0  0  0  0
   -0.2713    1.2292    0.2989 H   0  0  0  0  0  0
   -1.0547   -0.2667    0.8972 H   0  0  0  0  0  0
    0.5188   -0.3586    0.0456 H   0  0  0  0  0  0
    0.9265   -0.4919    2.3606 H   0  0  0  0  0  0
   -1.1116    0.6407    3.1855 H   0  0  0  0  0  0
    0.4219    1.1839    3.9354 H   0  0  0  0  0  0
   -0.3293    2.1534    2.6297 H   0  0  0  0  0  0
  1  2  1  0  0  0
  2  3  2  0  0  0
  2  4  1  0  0  0
  1  5  1  0  0  0
  1  6  1  0  0  0
  1  7  1  0  0  0
  4  8  1  0  0  0
  9 10  1  0  0  0
 10 11  1  0  0  0
  9 12  1  0  0  0
  9 13  1  0  0  0
  9 14  1  0  0  0
 10 15  1  0  0  0
 11 16  1  0  0  0
 11 17  1  0  0  0
 11 18  1  0  0  0
M  END
$$$$
