


  6  4  0  0  1  0            999 V2000
    2.1312    1.0670   -0.8111 C   0  0  0  0  0  0
    1.2711    1.1523    0.7327 Cl  0  0  0  0  0  0
    2.5866    2.0427   -1.0504 H   0  0  0  0  0  0
    1.4356    0.7949   -1.6228 H   0  0  0  0  0  0
    2.9302    0.3081   -0.7632 H   0  0  0  0  0  0
   -0.0939    1.2880    3.1830 K   0  0  0  0  0  0
  1  2  1  0  0  0
  1  3  1  0  0  0
  1  4  1  0  0  0
  1  5  1  0  0  0
M  CHG  1   6   1
M  END
$$$$
