


 20 19  0  0  1  0            999 V2000
    1.8360   -0.2840   -0.4896 C   0  0  0  0  0  0
    2.5497   -0.1778    0.8383 C   0  0  0  0  0  0
    2.8609   -1.1651    1.4842 O   0  0  0  0  0  0
    2.8560    1.2215    1.3202 C   0  0  0  0  0  0
    1.6660   -1.3418   -0.7517 H   0  0  0  0  0  0
    2.4384    0.1835   -1.2865 H   0  0  0  0  0  0
    0.8599    0.2275   -0.4405 H   0  0  0  0  0  0
    3.5072    1.7405    0.5969 H   0  0  0  0  0  0
    1.9238    1.8003    1.4326 H   0  0  0  0  0  0
    3.3697    1.1889    2.2957 H   0  0  0  0  0  0
   -2.6693    1.7131    3.0266 N   0  0  0  0  0  0
   -2.0092    0.7819    3.7292 C   0  0  0  0  0  0
   -1.3445    1.0773    4.9188 C   0  0  0  0  0  0
   -1.3211    2.3123    5.4393 N   0  0  0  0  0  0
   -1.9811    3.2436    4.7367 C   0  0  0  0  0  0
   -2.6459    2.9482    3.5469 C   0  0  0  0  0  0
   -2.0118   -0.2394    3.3260 H   0  0  0  0  0  0
   -0.8116    0.2940    5.4739 H   0  0  0  0  0  0
   -1.9786    4.2650    5.1398 H   0  0  0  0  0  0
   -3.1788    3.7316    2.9920 H   0  0  0  0  0  0
  1  2  1  0  0  0
  2  3  2  0  0  0
  2  4  1  0  0  0
  1  5  1  0  0  0
  1  6  1  0  0  0
  1  7  1  0  0  0
  4  8  1  0  0  0
  4  9  1  0  0  0
  4 10  1  0  0  0
 11 12  1  0  0  0
 12 13  2  0  0  0
 13 14  1  0  0  0
 14 15  2  0  0  0
 15 16  1  0  0  0
 11 16  2  0  0  0
 12 17  1  0  0  0
 13 18  1  0  0  0
 15 19  1  0  0  0
 16 20  1  0  0  0
M  END
$$$$
