


 23 22  0  0  1  0            999 V2000
   -0.1054    2.6070    1.7425 C   0  0  0  0  0  0
   -0.8941    2.9178    3.0217 C   0  0  0  0  0  0
    0.1866    2.9586    4.1335 C   0  0  0  0  0  0
    1.4987    2.6674    3.3928 C   0  0  0  0  0  0
    1.0471    1.8603    2.2555 N   0  0  0  0  0  0
    0.1931    3.5493    1.2442 H   0  0  0  0  0  0
   -0.6756    2.0045    1.0095 H   0  0  0  0  0  0
   -1.4536    3.8691    2.9362 H   0  0  0  0  0  0
   -1.6271    2.1131    3.2231 H   0  0  0  0  0  0
   -0.0065    2.1744    4.8905 H   0  0  0  0  0  0
    0.2209    3.9324    4.6588 H   0  0  0  0  0  0
    2.2363    2.1142    4.0054 H   0  0  0  0  0  0
    1.9708    3.6162    3.0729 H   0  0  0  0  0  0
    1.7829    1.7659    1.5438 H   0  0  0  0  0  0
    1.7565    0.0419    0.0153 C   0  0  0  0  0  0
    2.8160    0.7903    0.5775 O   0  0  0  0  0  0
    3.3757    0.1062    1.6809 C   0  0  0  0  0  0
    1.3559    0.6156   -0.8373 H   0  0  0  0  0  0
    0.9435   -0.1213    0.7426 H   0  0  0  0  0  0
    2.1021   -0.9391   -0.3520 H   0  0  0  0  0  0
    2.6319   -0.0542    2.4794 H   0  0  0  0  0  0
    3.7905   -0.8720    1.3848 H   0  0  0  0  0  0
    4.1936    0.7283    2.0817 H   0  0  0  0  0  0
  1  2  1  0  0  0
  2  3  1  0  0  0
  3  4  1  0  0  0
  4  5  1  0  0  0
  1  5  1  0  0  0
  1  6  1  0  0  0
  1  7  1  0  0  0
  2  8  1  0  0  0
  2  9  1  0  0  0
  3 10  1  0  0  0
  3 11  1  0  0  0
  4 12  1  0  0  0
  4 13  1  0  0  0
  5 14  1  0  0  0
 15 16  1  0  0  0
 16 17  1  0  0  0
 15 18  1  0  0  0
 15 19  1  0  0  0
 15 20  1  0  0  0
 17 21  1  0  0  0
 17 22  1  0  0  0
 17 23  1  0  0  0
M  END
$$$$
