


  8  6  0  0  1  0            999 V2000
    0.0000    0.0000    0.0000 Br  0  0  0  0  0  0
    1.4658   -0.4295    1.2043 C   0  0  0  0  0  0
    1.3474    0.4340    2.9865 Br  0  0  0  0  0  0
    1.5836   -1.5296    1.2430 H   0  0  0  0  0  0
    2.4050   -0.0044    0.8010 H   0  0  0  0  0  0
    2.4983   -1.3895   -2.5809 O   0  0  0  0  0  0
    3.4063   -1.3130   -2.2095 H   0  0  0  0  0  0
    2.5615   -0.9854   -3.4759 H   0  0  0  0  0  0
  1  2  1  0  0  0
  2  3  1  0  0  0
  2  4  1  0  0  0
  2  5  1  0  0  0
  6  7  1  0  0  0
  6  8  1  0  0  0
M  END
$$$$
