


 17 15  0  0  1  0            999 V2000
    0.9093    0.6165    3.7690 C   0  0  0  0  0  0
    0.5843    1.7767    3.0293 O   0  0  0  0  0  0
   -0.5362    1.5390    2.2007 C   0  0  0  0  0  0
    1.7852    0.8529    4.3963 H   0  0  0  0  0  0
    1.1674   -0.2279    3.1080 H   0  0  0  0  0  0
    0.0790    0.3078    4.4262 H   0  0  0  0  0  0
   -0.3398    0.7340    1.4726 H   0  0  0  0  0  0
   -1.4283    1.2697    2.7909 H   0  0  0  0  0  0
   -0.7480    2.4696    1.6477 H   0  0  0  0  0  0
    5.1286    2.4697    2.0395 Cl  0  0  0  0  0  0
    4.0324    2.9544    0.7195 C   0  0  0  0  0  0
    3.4409    4.3090    1.0322 C   0  0  0  0  0  0
    2.3447    4.7936   -0.2878 Cl  0  0  0  0  0  0
    4.6115    2.9708   -0.2238 H   0  0  0  0  0  0
    3.2472    2.1805    0.6190 H   0  0  0  0  0  0
    2.8618    4.2926    1.9755 H   0  0  0  0  0  0
    4.2260    5.0828    1.1327 H   0  0  0  0  0  0
  1  2  1  0  0  0
  2  3  1  0  0  0
  1  4  1  0  0  0
  1  5  1  0  0  0
  1  6  1  0  0  0
  3  7  1  0  0  0
  3  8  1  0  0  0
  3  9  1  0  0  0
 10 11  1  0  0  0
 11 12  1  0  0  0
 12 13  1  0  0  0
 11 14  1  0  0  0
 11 15  1  0  0  0
 12 16  1  0  0  0
 12 17  1  0  0  0
M  END
$$$$
