


 15 13  0  0  1  0            999 V2000
    0.0000    0.0000    0.0000 C   0  0  0  0  0  0
    1.2819   -0.7438   -0.5244 C   0  0  0  0  0  0
    0.8935   -1.9412   -1.0861 O   0  0  0  0  0  0
    2.0375    0.0963   -1.5178 C   0  0  0  0  0  0
   -0.5084    0.4643   -0.8617 H   0  0  0  0  0  0
    0.2598    0.7911    0.7234 H   0  0  0  0  0  0
   -0.6987   -0.7032    0.4836 H   0  0  0  0  0  0
    1.8977   -1.0082    0.3592 H   0  0  0  0  0  0
    0.8120   -2.5202   -0.2996 H   0  0  0  0  0  0
    2.5067    1.0101   -1.1161 H   0  0  0  0  0  0
    1.3693    0.3798   -2.3482 H   0  0  0  0  0  0
    2.8299   -0.5616   -1.9127 H   0  0  0  0  0  0
    5.8946    1.2247   -0.5900 O   0  0  0  0  0  0
    6.8472    1.2593   -0.8340 H   0  0  0  0  0  0
    5.8012    0.3933   -0.0720 H   0  0  0  0  0  0
  1  2  1  0  0  0
  2  3  1  0  0  0
  2  4  1  0  0  0
  1  5  1  0  0  0
  1  6  1  0  0  0
  1  7  1  0  0  0
  2  8  1  0  0  0
  3  9  1  0  0  0
  4 10  1  0  0  0
  4 11  1  0  0  0
  4 12  1  0  0  0
 13 14  1  0  0  0
 13 15  1  0  0  0
M  END
$$$$
