


 15 13  0  0  1  0            999 V2000
    0.0000    0.0000    0.0000 C   0  0  0  0  0  0
   -1.0343    1.1783    0.1405 C   0  0  0  0  0  0
   -1.3179    1.8070   -1.0929 O   0  0  0  0  0  0
   -2.4445    0.5426    0.4538 C   0  0  0  0  0  0
   -0.2615   -0.4656   -0.9651 H   0  0  0  0  0  0
   -0.1383   -0.7468    0.7998 H   0  0  0  0  0  0
    1.0629    0.2934   -0.0275 H   0  0  0  0  0  0
   -0.7387    1.9634    0.8659 H   0  0  0  0  0  0
   -1.9130    2.5569   -0.8833 H   0  0  0  0  0  0
   -3.2316    1.3090    0.5523 H   0  0  0  0  0  0
   -2.3203    0.0388    1.4271 H   0  0  0  0  0  0
   -2.7713   -0.2039   -0.2896 H   0  0  0  0  0  0
   -0.4787    3.4427    6.8390 O   0  0  0  0  0  0
   -0.3921    4.1740    6.1863 H   0  0  0  0  0  0
   -0.6720    3.8933    7.6921 H   0  0  0  0  0  0
  1  2  1  0  0  0
  2  3  1  0  0  0
  2  4  1  0  0  0
  1  5  1  0  0  0
  1  6  1  0  0  0
  1  7  1  0  0  0
  2  8  1  0  0  0
  3  9  1  0  0  0
  4 10  1  0  0  0
  4 11  1  0  0  0
  4 12  1  0  0  0
 13 14  1  0  0  0
 13 15  1  0  0  0
M  END
$$$$
