


 22 21  0  0  1  0            999 V2000
    0.3961    2.0944    1.7572 C   0  0  0  0  0  0
    1.4744    1.4146    2.6021 C   0  0  0  0  0  0
    1.9387    0.1193    2.1026 N   0  0  0  0  0  0
    0.7721    2.2759    0.7363 H   0  0  0  0  0  0
    0.1038    3.0607    2.2015 H   0  0  0  0  0  0
   -0.4979    1.4515    1.6938 H   0  0  0  0  0  0
    2.3580    2.0777    2.6727 H   0  0  0  0  0  0
    1.0907    1.2550    3.6282 H   0  0  0  0  0  0
    2.3095    0.2256    1.1519 H   0  0  0  0  0  0
    1.1470   -0.5291    2.0284 H   0  0  0  0  0  0
    2.7118    1.2260   -0.8971 Cl  0  0  0  0  0  0
    3.2184    2.0882    0.5216 C   0  0  0  0  0  0
    2.7390    3.3770    0.7456 C   0  0  0  0  0  0
    3.1515    4.0630    1.8885 C   0  0  0  0  0  0
    4.0301    3.4675    2.7927 C   0  0  0  0  0  0
    4.5001    2.1757    2.5520 C   0  0  0  0  0  0
    4.0977    1.4769    1.4150 C   0  0  0  0  0  0
    2.0475    3.8353    0.0262 H   0  0  0  0  0  0
    2.7771    5.0790    2.0706 H   0  0  0  0  0  0
    4.3509    4.0125    3.6903 H   0  0  0  0  0  0
    5.1922    1.7001    3.2594 H   0  0  0  0  0  0
    4.4603    0.4601    1.2143 H   0  0  0  0  0  0
  1  2  1  0  0  0
  2  3  1  0  0  0
  1  4  1  0  0  0
  1  5  1  0  0  0
  1  6  1  0  0  0
  2  7  1  0  0  0
  2  8  1  0  0  0
  3  9  1  0  0  0
  3 10  1  0  0  0
 11 12  1  0  0  0
 12 13  1  0  0  0
 13 14  2  0  0  0
 14 15  1  0  0  0
 15 16  2  0  0  0
 16 17  1  0  0  0
 12 17  2  0  0  0
 13 18  1  0  0  0
 14 19  1  0  0  0
 15 20  1  0  0  0
 16 21  1  0  0  0
 17 22  1  0  0  0
M  END
$$$$
