


 29 28  0  0  1  0            999 V2000
    0.3311    3.8259   -1.0732 C   0  0  0  0  0  0
    1.3042    5.0061   -1.0449 C   0  0  0  0  0  0
    1.8802    5.2671    0.3482 C   0  0  0  0  0  0
    2.6429    4.0627    0.8908 C   0  0  0  0  0  0
    1.5886    2.6012    1.0835 S   0  0  0  0  0  0
    0.9904    2.5252   -0.6255 C   0  0  0  0  0  0
   -0.0584    3.6938   -2.1010 H   0  0  0  0  0  0
   -0.5306    4.0376   -0.4113 H   0  0  0  0  0  0
    2.1386    4.7963   -1.7415 H   0  0  0  0  0  0
    0.7868    5.9165   -1.4041 H   0  0  0  0  0  0
    1.0610    5.5183    1.0490 H   0  0  0  0  0  0
    2.5659    6.1352    0.3069 H   0  0  0  0  0  0
    3.0567    4.2689    1.8966 H   0  0  0  0  0  0
    3.4894    3.8087    0.2242 H   0  0  0  0  0  0
    0.2750    1.6810   -0.6557 H   0  0  0  0  0  0
    1.8379    2.2722   -1.2911 H   0  0  0  0  0  0
    2.9181   -0.6521    2.8927 C   0  0  0  0  0  0
    2.0120    0.4815    2.7383 N   0  0  0  0  0  0
    0.9998    0.7395    3.5588 C   0  0  0  0  0  0
    0.2120    1.8009    3.3499 N   0  0  0  0  0  0
    0.3880    2.4192    2.5541 H   0  0  0  0  0  0
   -0.5659    1.9940    3.9855 H   0  0  0  0  0  0
    0.7663   -0.0643    4.5984 N   0  0  0  0  0  0
    3.6574   -0.6185    2.0748 H   0  0  0  0  0  0
    2.3749   -1.6105    2.8369 H   0  0  0  0  0  0
    3.4557   -0.6079    3.8549 H   0  0  0  0  0  0
    2.1624    1.1180    1.9517 H   0  0  0  0  0  0
    1.3667   -0.8765    4.7609 H   0  0  0  0  0  0
   -0.0123    0.1313    5.2325 H   0  0  0  0  0  0
  1  2  1  0  0  0
  2  3  1  0  0  0
  3  4  1  0  0  0
  4  5  1  0  0  0
  5  6  1  0  0  0
  1  6  1  0  0  0
  1  7  1  0  0  0
  1  8  1  0  0  0
  2  9  1  0  0  0
  2 10  1  0  0  0
  3 11  1  0  0  0
  3 12  1  0  0  0
  4 13  1  0  0  0
  4 14  1  0  0  0
  6 15  1  0  0  0
  6 16  1  0  0  0
 17 18  1  0  0  0
 18 19  1  0  0  0
 19 20  2  0  0  0
 20 21  1  0  0  0
 20 22  1  0  0  0
 19 23  1  0  0  0
 17 24  1  0  0  0
 17 25  1  0  0  0
 17 26  1  0  0  0
 18 27  1  0  0  0
 23 28  1  0  0  0
 23 29  1  0  0  0
M  CHG  1  20   1
M  END
$$$$
