


 15 13  0  0  1  0            999 V2000
    0.0000    0.0000    0.0000 C   0  0  0  0  0  0
   -0.0818   -1.4291    0.4750 C   0  0  0  0  0  0
    0.0675   -1.5566    2.0501 C   0  0  0  0  0  0
   -1.1438   -1.1719    2.6485 O   0  0  0  0  0  0
    0.4316    0.0301   -1.0146 H   0  0  0  0  0  0
    0.5611    0.6999    0.6419 H   0  0  0  0  0  0
   -1.0492    0.3360   -0.0538 H   0  0  0  0  0  0
   -1.0942   -1.7946    0.2160 H   0  0  0  0  0  0
    0.6501   -2.0340   -0.0940 H   0  0  0  0  0  0
    0.2400   -2.6248    2.2835 H   0  0  0  0  0  0
    0.9523   -0.9891    2.3973 H   0  0  0  0  0  0
   -0.8517   -0.8555    3.5288 H   0  0  0  0  0  0
   -3.5222    0.7965    1.4749 O   0  0  0  0  0  0
   -3.9975   -0.0316    1.2370 H   0  0  0  0  0  0
   -2.6526    0.4926    1.8211 H   0  0  0  0  0  0
  1  2  1  0  0  0
  2  3  1  0  0  0
  3  4  1  0  0  0
  1  5  1  0  0  0
  1  6  1  0  0  0
  1  7  1  0  0  0
  2  8  1  0  0  0
  2  9  1  0  0  0
  3 10  1  0  0  0
  3 11  1  0  0  0
  4 12  1  0  0  0
 13 14  1  0  0  0
 13 15  1  0  0  0
M  END
$$$$
