


 13 11  0  0  1  0            999 V2000
   -1.3084   -1.4183    1.8332 C   0  0  0  0  0  0
   -2.1553   -0.3876    1.8403 C   0  0  0  0  0  0
   -1.5777   -2.3701    1.3610 H   0  0  0  0  0  0
   -0.3193   -1.3427    2.2992 H   0  0  0  0  0  0
   -3.1444   -0.4633    1.3743 H   0  0  0  0  0  0
   -1.8860    0.5641    2.3124 H   0  0  0  0  0  0
    2.1151    2.9002    0.3351 C   0  0  0  0  0  0
    2.5280    2.6362    1.7598 C   0  0  0  0  0  0
    1.8754    2.9958    2.7200 O   0  0  0  0  0  0
    2.0278    3.9879    0.1740 H   0  0  0  0  0  0
    1.1324    2.4365    0.1460 H   0  0  0  0  0  0
    2.8409    2.4944   -0.3896 H   0  0  0  0  0  0
    3.4850    2.0808    1.9127 H   0  0  0  0  0  0
  1  2  2  0  0  0
  1  3  1  0  0  0
  1  4  1  0  0  0
  2  5  1  0  0  0
  2  6  1  0  0  0
  7  8  1  0  0  0
  8  9  2  0  0  0
  7 10  1  0  0  0
  7 11  1  0  0  0
  7 12  1  0  0  0
  8 13  1  0  0  0
M  END
$$$$
