


  4  2  0  0  1  0            999 V2000
    2.7752    3.2793    0.5598 S   0  0  0  0  0  0
    2.7712    1.9703    0.8734 H   0  0  0  0  0  0
    1.5089    3.4388    0.9871 H   0  0  0  0  0  0
   -0.0274    0.7434    2.1945 Cl  0  0  0  0  0  0
  1  2  1  0  0  0
  1  3  1  0  0  0
M  CHG  1   4  -1
M  END
$$$$
