


 22 20  0  0  1  0            999 V2000
    0.0610    0.2515    3.4514 C   0  0  0  0  0  0
    1.2291   -0.3899    2.7386 C   0  0  0  0  0  0
    1.0707   -1.2007    1.8406 O   0  0  0  0  0  0
    2.6048    0.0305    3.2020 C   0  0  0  0  0  0
   -0.8924   -0.1165    3.0362 H   0  0  0  0  0  0
    0.0960    1.3477    3.3340 H   0  0  0  0  0  0
    0.0919    0.0118    4.5276 H   0  0  0  0  0  0
    2.7393    1.1164    3.0631 H   0  0  0  0  0  0
    2.7378   -0.2066    4.2710 H   0  0  0  0  0  0
    3.3832   -0.4970    2.6253 H   0  0  0  0  0  0
    2.1131    4.1712    1.0278 O   0  0  0  0  0  0
    1.2109    3.6186    0.4143 C   0  0  0  0  0  0
    1.3630    2.6058   -0.4803 N   0  0  0  0  0  0
    0.2334    2.0123   -1.1579 C   0  0  0  0  0  0
    2.6774    2.0843   -0.7828 C   0  0  0  0  0  0
    0.1383    3.9055    0.5362 H   0  0  0  0  0  0
    0.3282    2.1284   -2.2507 H   0  0  0  0  0  0
    0.1577    0.9371   -0.9237 H   0  0  0  0  0  0
   -0.6949    2.5099   -0.8304 H   0  0  0  0  0  0
    3.4265    2.6364   -0.1906 H   0  0  0  0  0  0
    2.7467    1.0135   -0.5274 H   0  0  0  0  0  0
    2.9149    2.2068   -1.8529 H   0  0  0  0  0  0
  1  2  1  0  0  0
  2  3  2  0  0  0
  2  4  1  0  0  0
  1  5  1  0  0  0
  1  6  1  0  0  0
  1  7  1  0  0  0
  4  8  1  0  0  0
  4  9  1  0  0  0
  4 10  1  0  0  0
 11 12  2  0  0  0
 12 13  1  0  0  0
 13 14  1  0  0  0
 13 15  1  0  0  0
 12 16  1  0  0  0
 14 17  1  0  0  0
 14 18  1  0  0  0
 14 19  1  0  0  0
 15 20  1  0  0  0
 15 21  1  0  0  0
 15 22  1  0  0  0
M  END
$$$$
