


  8  6  0  0  1  0            999 V2000
    0.0000    0.0000    0.0000 C   0  0  0  0  0  0
    0.4258   -1.5146   -0.8557 Cl  0  0  0  0  0  0
    0.7657    0.7670   -0.2051 H   0  0  0  0  0  0
   -0.0397   -0.1753    1.0883 H   0  0  0  0  0  0
   -0.9798    0.3839   -0.3305 H   0  0  0  0  0  0
    4.3125   -0.1975    1.0865 O   0  0  0  0  0  0
    4.4172    0.5738    1.6885 H   0  0  0  0  0  0
    3.8020   -0.8546    1.6119 H   0  0  0  0  0  0
  1  2  1  0  0  0
  1  3  1  0  0  0
  1  4  1  0  0  0
  1  5  1  0  0  0
  6  7  1  0  0  0
  6  8  1  0  0  0
M  END
$$$$
