


 29 27  0  0  1  0            999 V2000
    1.9602    2.9344   -1.1915 C   0  0  0  0  0  0
    0.8452    2.5688   -0.2306 C   0  0  0  0  0  0
    0.2618    1.4898   -0.3239 O   0  0  0  0  0  0
    0.5362    3.4801    0.7455 N   0  0  0  0  0  0
    1.0716    4.8248    0.8185 C   0  0  0  0  0  0
   -0.5691    3.2071    1.6424 C   0  0  0  0  0  0
    2.0965    2.0800   -1.8757 H   0  0  0  0  0  0
    2.9121    3.1194   -0.6658 H   0  0  0  0  0  0
    1.7090    3.8269   -1.7889 H   0  0  0  0  0  0
    0.3289    5.5629    0.4718 H   0  0  0  0  0  0
    1.3336    5.0543    1.8650 H   0  0  0  0  0  0
    1.9792    4.9215    0.1992 H   0  0  0  0  0  0
   -0.8540    2.1448    1.5591 H   0  0  0  0  0  0
   -0.2731    3.4112    2.6852 H   0  0  0  0  0  0
   -1.4480    3.8273    1.3985 H   0  0  0  0  0  0
    3.7381   -0.0382    1.0543 C   0  0  0  0  0  0
    3.6572    1.0198    2.1542 C   0  0  0  0  0  0
    2.4683    0.8038    3.0877 C   0  0  0  0  0  0
    2.3874    1.8618    4.1877 C   0  0  0  0  0  0
    4.6049    0.1432    0.3967 H   0  0  0  0  0  0
    2.8212   -0.0172    0.4415 H   0  0  0  0  0  0
    3.8395   -1.0414    1.5014 H   0  0  0  0  0  0
    4.5884    1.0014    2.7526 H   0  0  0  0  0  0
    3.5722    2.0234    1.6949 H   0  0  0  0  0  0
    1.5372    0.8222    2.4893 H   0  0  0  0  0  0
    2.5534   -0.1998    3.5470 H   0  0  0  0  0  0
    2.2860    2.8650    3.7405 H   0  0  0  0  0  0
    3.3043    1.8408    4.8004 H   0  0  0  0  0  0
    1.5206    1.6804    4.8452 H   0  0  0  0  0  0
  1  2  1  0  0  0
  2  3  2  0  0  0
  2  4  1  0  0  0
  4  5  1  0  0  0
  4  6  1  0  0  0
  1  7  1  0  0  0
  1  8  1  0  0  0
  1  9  1  0  0  0
  5 10  1  0  0  0
  5 11  1  0  0  0
  5 12  1  0  0  0
  6 13  1  0  0  0
  6 14  1  0  0  0
  6 15  1  0  0  0
 16 17  1  0  0  0
 17 18  1  0  0  0
 18 19  1  0  0  0
 16 20  1  0  0  0
 16 21  1  0  0  0
 16 22  1  0  0  0
 17 23  1  0  0  0
 17 24  1  0  0  0
 18 25  1  0  0  0
 18 26  1  0  0  0
 19 27  1  0  0  0
 19 28  1  0  0  0
 19 29  1  0  0  0
M  END
$$$$
