


 22 20  0  0  1  0            999 V2000
    1.9643    3.6383    0.3644 C   0  0  0  0  0  0
    0.6294    2.9232    0.2317 C   0  0  0  0  0  0
   -0.0032    2.2617    1.8056 S   0  0  0  0  0  0
   -0.4153    3.9531    2.8674 S   0  0  0  0  0  0
   -2.0917    4.3417    2.3174 C   0  0  0  0  0  0
    2.2945    4.0166   -0.6176 H   0  0  0  0  0  0
    2.7338    2.9503    0.7532 H   0  0  0  0  0  0
    1.8726    4.4914    1.0574 H   0  0  0  0  0  0
   -0.1445    3.5814   -0.2080 H   0  0  0  0  0  0
    0.7146    2.0269   -0.4124 H   0  0  0  0  0  0
   -2.7882    3.5142    2.5340 H   0  0  0  0  0  0
   -2.4235    5.2352    2.8725 H   0  0  0  0  0  0
   -2.1331    4.5628    1.2376 H   0  0  0  0  0  0
    3.2001   -0.6197    1.8196 C   0  0  0  0  0  0
    1.8559   -1.2567    0.8051 S   0  0  0  0  0  0
    0.8154   -1.8942    2.1290 C   0  0  0  0  0  0
    3.9548   -0.1770    1.1480 H   0  0  0  0  0  0
    3.6783   -1.4222    2.4059 H   0  0  0  0  0  0
    2.8464    0.1606    2.5143 H   0  0  0  0  0  0
    1.3347   -2.6748    2.7100 H   0  0  0  0  0  0
    0.5028   -1.0919    2.8184 H   0  0  0  0  0  0
   -0.0859   -2.3366    1.6724 H   0  0  0  0  0  0
  1  2  1  0  0  0
  2  3  1  0  0  0
  3  4  1  0  0  0
  4  5  1  0  0  0
  1  6  1  0  0  0
  1  7  1  0  0  0
  1  8  1  0  0  0
  2  9  1  0  0  0
  2 10  1  0  0  0
  5 11  1  0  0  0
  5 12  1  0  0  0
  5 13  1  0  0  0
 14 15  1  0  0  0
 15 16  1  0  0  0
 14 17  1  0  0  0
 14 18  1  0  0  0
 14 19  1  0  0  0
 16 20  1  0  0  0
 16 21  1  0  0  0
 16 22  1  0  0  0
M  END
$$$$
