


 16 14  0  0  1  0            999 V2000
    3.0936    3.9315    0.0032 C   0  0  0  0  0  0
    2.9413    3.1091    1.2593 C   0  0  0  0  0  0
    1.4364    3.5357    2.1099 Cl  0  0  0  0  0  0
    2.9587    1.3702    0.8768 Cl  0  0  0  0  0  0
    3.1051    5.0062    0.2511 H   0  0  0  0  0  0
    2.2582    3.7394   -0.6909 H   0  0  0  0  0  0
    4.0389    3.6777   -0.5054 H   0  0  0  0  0  0
    3.7664    3.2782    1.9809 H   0  0  0  0  0  0
   -1.6643    0.1082    2.0619 C   0  0  0  0  0  0
   -0.5230    0.0130    3.0255 N   0  0  0  0  0  0
    0.3763    0.2311    2.5508 H   0  0  0  0  0  0
   -0.6492    0.6839    3.8101 H   0  0  0  0  0  0
   -0.4582   -0.9459    3.4230 H   0  0  0  0  0  0
   -1.7285    1.1267    1.6434 H   0  0  0  0  0  0
   -2.6153   -0.1239    2.5702 H   0  0  0  0  0  0
   -1.5256   -0.6050    1.2320 H   0  0  0  0  0  0
  1  2  1  0  0  0
  2  3  1  0  0  0
  2  4  1  0  0  0
  1  5  1  0  0  0
  1  6  1  0  0  0
  1  7  1  0  0  0
  2  8  1  0  0  0
  9 10  1  0  0  0
 10 11  1  0  0  0
 10 12  1  0  0  0
 10 13  1  0  0  0
  9 14  1  0  0  0
  9 15  1  0  0  0
  9 16  1  0  0  0
M  CHG  1  10   1
M  END
$$$$
