


 17 15  0  0  1  0            999 V2000
    2.8477    0.9673    2.1876 C   0  0  0  0  0  0
    2.6244    2.3798    1.6988 C   0  0  0  0  0  0
    2.0719    2.6152    0.6367 O   0  0  0  0  0  0
    3.1247    3.4841    2.6012 C   0  0  0  0  0  0
    2.4429    0.2407    1.4631 H   0  0  0  0  0  0
    2.3455    0.8139    3.1576 H   0  0  0  0  0  0
    3.9260    0.7733    2.3151 H   0  0  0  0  0  0
    2.6231    3.4323    3.5821 H   0  0  0  0  0  0
    4.2125    3.3881    2.7567 H   0  0  0  0  0  0
    2.9192    4.4706    2.1525 H   0  0  0  0  0  0
   -1.6809   -1.2554   -0.1151 C   0  0  0  0  0  0
   -0.5100   -1.4568   -0.9760 N   0  0  0  0  0  0
   -2.1845   -2.2278    0.0171 H   0  0  0  0  0  0
   -2.4137   -0.5300   -0.5067 H   0  0  0  0  0  0
   -1.3299   -0.9041    0.8698 H   0  0  0  0  0  0
   -0.8047   -1.7780   -1.9048 H   0  0  0  0  0  0
   -0.0224   -0.5663   -1.1243 H   0  0  0  0  0  0
  1  2  1  0  0  0
  2  3  2  0  0  0
  2  4  1  0  0  0
  1  5  1  0  0  0
  1  6  1  0  0  0
  1  7  1  0  0  0
  4  8  1  0  0  0
  4  9  1  0  0  0
  4 10  1  0  0  0
 11 12  1  0  0  0
 11 13  1  0  0  0
 11 14  1  0  0  0
 11 15  1  0  0  0
 12 16  1  0  0  0
 12 17  1  0  0  0
M  END
$$$$
