


 22 21  0  0  1  0            999 V2000
    1.2657    3.4767    3.3358 C   0  0  0  0  0  0
    2.7578    4.4179    2.9490 S   0  0  0  0  0  0
    2.6773    4.5340    0.9156 S   0  0  0  0  0  0
    1.6122    5.9696    0.6582 C   0  0  0  0  0  0
    1.2429    3.3281    4.4285 H   0  0  0  0  0  0
    1.2746    2.4883    2.8464 H   0  0  0  0  0  0
    0.3487    4.0104    3.0341 H   0  0  0  0  0  0
    0.5966    5.8095    1.0577 H   0  0  0  0  0  0
    2.0355    6.8745    1.1258 H   0  0  0  0  0  0
    1.5401    6.1365   -0.4297 H   0  0  0  0  0  0
    2.6223   -1.4131    4.9388 F   0  0  0  0  0  0
    2.5484   -1.0401    3.6413 C   0  0  0  0  0  0
    3.5855   -0.2935    3.1006 C   0  0  0  0  0  0
    3.5017    0.0874    1.7613 C   0  0  0  0  0  0
    2.3973   -0.2782    0.9912 C   0  0  0  0  0  0
    1.3693   -1.0293    1.5618 C   0  0  0  0  0  0
    1.4381   -1.4181    2.8997 C   0  0  0  0  0  0
    4.4426   -0.0199    3.7300 H   0  0  0  0  0  0
    4.3131    0.6784    1.3164 H   0  0  0  0  0  0
    2.3372    0.0247   -0.0625 H   0  0  0  0  0  0
    0.4982   -1.3193    0.9595 H   0  0  0  0  0  0
    0.6440   -2.0092    3.3747 H   0  0  0  0  0  0
  1  2  1  0  0  0
  2  3  1  0  0  0
  3  4  1  0  0  0
  1  5  1  0  0  0
  1  6  1  0  0  0
  1  7  1  0  0  0
  4  8  1  0  0  0
  4  9  1  0  0  0
  4 10  1  0  0  0
 11 12  1  0  0  0
 12 13  1  0  0  0
 13 14  2  0  0  0
 14 15  1  0  0  0
 15 16  2  0  0  0
 16 17  1  0  0  0
 12 17  2  0  0  0
 13 18  1  0  0  0
 14 19  1  0  0  0
 15 20  1  0  0  0
 16 21  1  0  0  0
 17 22  1  0  0  0
M  END
$$$$
