


 18 16  0  0  1  0            999 V2000
    0.0000    0.0000    0.0000 C   0  0  0  0  0  0
   -0.8617   -0.6170   -1.1042 C   0  0  0  0  0  0
   -0.1746   -0.6478   -2.4563 C   0  0  0  0  0  0
    0.5734    0.5277   -2.7792 O   0  0  0  0  0  0
    0.9878   -1.5810   -2.4539 C   0  0  0  0  0  0
    0.4117    0.8946   -0.4968 H   0  0  0  0  0  0
    0.8381   -0.6419    0.3198 H   0  0  0  0  0  0
   -0.5591    0.3206    0.8951 H   0  0  0  0  0  0
   -1.2147   -1.6363   -0.8554 H   0  0  0  0  0  0
   -1.7529    0.0306   -1.2127 H   0  0  0  0  0  0
   -0.8191   -0.9333   -3.3124 H   0  0  0  0  0  0
    0.1062    1.3650   -2.5767 H   0  0  0  0  0  0
    1.7550   -1.3856   -1.6859 H   0  0  0  0  0  0
    1.4493   -1.4674   -3.4492 H   0  0  0  0  0  0
    0.6380   -2.6214   -2.3450 H   0  0  0  0  0  0
    3.6312   -0.3500    3.5212 O   0  0  0  0  0  0
    3.8149    0.0737    4.3901 H   0  0  0  0  0  0
    3.2308    0.3648    2.9763 H   0  0  0  0  0  0
  1  2  1  0  0  0
  2  3  1  0  0  0
  3  4  1  0  0  0
  3  5  1  0  0  0
  1  6  1  0  0  0
  1  7  1  0  0  0
  1  8  1  0  0  0
  2  9  1  0  0  0
  2 10  1  0  0  0
  3 11  1  0  0  0
  4 12  1  0  0  0
  5 13  1  0  0  0
  5 14  1  0  0  0
  5 15  1  0  0  0
 16 17  1  0  0  0
 16 18  1  0  0  0
M  END
$$$$
