


 14 13  0  0  1  0            999 V2000
   -1.3927   -1.4579   -3.3098 O   0  0  0  0  0  0
   -1.9872   -0.8893   -2.7700 H   0  0  0  0  0  0
   -1.7716   -1.4220   -4.2172 H   0  0  0  0  0  0
    0.0000    0.0000    0.0000 C   0  0  0  0  0  0
   -1.2188   -0.5926    0.2888 C   0  0  0  0  0  0
   -1.2531   -1.9298    0.4959 C   0  0  0  0  0  0
   -0.1019   -2.7162    0.1964 C   0  0  0  0  0  0
    1.0331   -2.1492   -0.2595 N   0  0  0  0  0  0
    1.0592   -0.8046   -0.3910 C   0  0  0  0  0  0
    0.1364    1.0892    0.0244 H   0  0  0  0  0  0
   -2.0031    0.1031    0.6150 H   0  0  0  0  0  0
   -2.1779   -2.4639    0.7509 H   0  0  0  0  0  0
   -0.0436   -3.7954    0.3905 H   0  0  0  0  0  0
    2.0454   -0.3750   -0.6112 H   0  0  0  0  0  0
  1  2  1  0  0  0
  1  3  1  0  0  0
  4  5  1  0  0  0
  5  6  2  0  0  0
  6  7  1  0  0  0
  7  8  2  0  0  0
  8  9  1  0  0  0
  4  9  2  0  0  0
  4 10  1  0  0  0
  5 11  1  0  0  0
  6 12  1  0  0  0
  7 13  1  0  0  0
  9 14  1  0  0  0
M  END
$$$$
