


 20 20  0  0  1  0            999 V2000
   -7.3069   10.1017    6.5464 N   0  0  0  0  0  0
   -6.7973   10.5172    5.3419 C   0  0  0  0  0  0
   -7.5620   10.4746    4.1654 C   0  0  0  0  0  0
   -8.8941   10.1673    4.1076 N   0  0  0  0  0  0
   -9.4247    9.9611    5.3491 C   0  0  0  0  0  0
   -8.6402    9.8802    6.5014 C   0  0  0  0  0  0
   -5.7551   10.8386    5.4695 H   0  0  0  0  0  0
   -7.1626   11.0471    3.3179 H   0  0  0  0  0  0
  -10.5131    9.8273    5.4042 H   0  0  0  0  0  0
   -9.1450    9.8014    7.4733 H   0  0  0  0  0  0
   -6.4333   10.0753   -1.3837 N   0  0  0  0  0  0
   -6.4651    8.7829   -0.9977 C   0  0  0  0  0  0
   -6.6315    8.4727    0.3614 C   0  0  0  0  0  0
   -6.6975    9.3786    1.3247 N   0  0  0  0  0  0
   -6.7871   10.6632    0.9163 C   0  0  0  0  0  0
   -6.5479   11.0452   -0.4582 C   0  0  0  0  0  0
   -6.4158    7.9754   -1.7401 H   0  0  0  0  0  0
   -6.6455    7.4283    0.6999 H   0  0  0  0  0  0
   -6.8379   11.4737    1.6553 H   0  0  0  0  0  0
   -6.4644   12.0993   -0.7541 H   0  0  0  0  0  0
  1  2  1  0  0  0
  2  3  2  0  0  0
  3  4  1  0  0  0
  4  5  2  0  0  0
  5  6  1  0  0  0
  1  6  2  0  0  0
  2  7  1  0  0  0
  3  8  1  0  0  0
  5  9  1  0  0  0
  6 10  1  0  0  0
 11 12  1  0  0  0
 12 13  2  0  0  0
 13 14  1  0  0  0
 14 15  2  0  0  0
 15 16  1  0  0  0
 11 16  2  0  0  0
 12 17  1  0  0  0
 13 18  1  0  0  0
 15 19  1  0  0  0
 16 20  1  0  0  0
M  END
$$$$
