


 20 20  0  0  1  0            999 V2000
    0.0000    0.0000    0.0000 N   0  0  0  0  0  0
   -0.1402    0.5837   -1.2022 C   0  0  0  0  0  0
   -0.2751   -0.3010   -2.3753 C   0  0  0  0  0  0
   -0.2745   -1.6614   -2.2984 N   0  0  0  0  0  0
   -0.2854   -2.1723   -1.1121 C   0  0  0  0  0  0
   -0.0829   -1.3265   -0.0077 C   0  0  0  0  0  0
   -0.0127    1.6741   -1.2172 H   0  0  0  0  0  0
   -0.2327    0.1861   -3.3584 H   0  0  0  0  0  0
   -0.3301   -3.2441   -0.8777 H   0  0  0  0  0  0
    0.0101   -1.7368    1.0065 H   0  0  0  0  0  0
    0.1866    2.8292   -3.5952 N   0  0  0  0  0  0
   -1.0709    3.1886   -3.8572 C   0  0  0  0  0  0
   -1.2870    4.2788   -4.7708 C   0  0  0  0  0  0
   -0.2640    4.9410   -5.3571 N   0  0  0  0  0  0
    0.9887    4.5210   -5.0472 C   0  0  0  0  0  0
    1.2524    3.4886   -4.1799 C   0  0  0  0  0  0
   -1.8262    2.6110   -3.3082 H   0  0  0  0  0  0
   -2.2833    4.7083   -4.9399 H   0  0  0  0  0  0
    1.8089    5.0251   -5.5752 H   0  0  0  0  0  0
    2.2654    3.1590   -3.9136 H   0  0  0  0  0  0
  1  2  1  0  0  0
  2  3  2  0  0  0
  3  4  1  0  0  0
  4  5  2  0  0  0
  5  6  1  0  0  0
  1  6  2  0  0  0
  2  7  1  0  0  0
  3  8  1  0  0  0
  5  9  1  0  0  0
  6 10  1  0  0  0
 11 12  1  0  0  0
 12 13  2  0  0  0
 13 14  1  0  0  0
 14 15  2  0  0  0
 15 16  1  0  0  0
 11 16  2  0  0  0
 12 17  1  0  0  0
 13 18  1  0  0  0
 15 19  1  0  0  0
 16 20  1  0  0  0
M  END
$$$$
