


 20 20  0  0  1  0            999 V2000
   -3.0518    5.9710   16.1081 N   0  0  0  0  0  0
   -3.1895    5.0790   15.0457 C   0  0  0  0  0  0
   -2.7446    3.7312   15.1071 C   0  0  0  0  0  0
   -2.4392    3.1817   16.2864 N   0  0  0  0  0  0
   -2.3297    4.0417   17.3277 C   0  0  0  0  0  0
   -2.5599    5.4105   17.2129 C   0  0  0  0  0  0
   -3.5205    5.5088   14.0911 H   0  0  0  0  0  0
   -2.8267    3.0509   14.2492 H   0  0  0  0  0  0
   -2.0185    3.6239   18.2942 H   0  0  0  0  0  0
   -2.4435    6.1123   18.0492 H   0  0  0  0  0  0
   -1.7045   -1.4787   16.3536 N   0  0  0  0  0  0
   -2.3496   -2.6743   16.5464 C   0  0  0  0  0  0
   -3.5812   -2.9472   15.9308 C   0  0  0  0  0  0
   -4.2139   -1.9796   15.1985 N   0  0  0  0  0  0
   -3.6220   -0.8052   15.1329 C   0  0  0  0  0  0
   -2.3305   -0.5719   15.6427 C   0  0  0  0  0  0
   -1.8305   -3.5084   17.0367 H   0  0  0  0  0  0
   -3.9882   -3.9667   15.9077 H   0  0  0  0  0  0
   -4.0877    0.0106   14.5645 H   0  0  0  0  0  0
   -1.7491    0.3593   15.6622 H   0  0  0  0  0  0
  1  2  1  0  0  0
  2  3  2  0  0  0
  3  4  1  0  0  0
  4  5  2  0  0  0
  5  6  1  0  0  0
  1  6  2  0  0  0
  2  7  1  0  0  0
  3  8  1  0  0  0
  5  9  1  0  0  0
  6 10  1  0  0  0
 11 12  1  0  0  0
 12 13  2  0  0  0
 13 14  1  0  0  0
 14 15  2  0  0  0
 15 16  1  0  0  0
 11 16  2  0  0  0
 12 17  1  0  0  0
 13 18  1  0  0  0
 15 19  1  0  0  0
 16 20  1  0  0  0
M  END
$$$$
