


 12 10  0  0  1  0            999 V2000
    5.8238    4.6307   -9.4083 N   0  0  0  0  0  0
    5.7594    3.5483  -10.1914 C   0  0  0  0  0  0
    4.8910    3.4162  -11.0434 O   0  0  0  0  0  0
    5.2325    5.4345   -9.6338 H   0  0  0  0  0  0
    6.5760    4.7258   -8.7216 H   0  0  0  0  0  0
    6.5977    2.8910   -9.8555 H   0  0  0  0  0  0
    1.3591    3.2661  -12.9683 N   0  0  0  0  0  0
    1.8149    2.9453  -14.1623 C   0  0  0  0  0  0
    2.9744    2.7063  -14.3534 O   0  0  0  0  0  0
    2.0850    3.2271  -12.2485 H   0  0  0  0  0  0
    0.4119    3.5655  -12.7238 H   0  0  0  0  0  0
    0.9642    2.9857  -14.8850 H   0  0  0  0  0  0
  1  2  1  0  0  0
  2  3  2  0  0  0
  1  4  1  0  0  0
  1  5  1  0  0  0
  2  6  1  0  0  0
  7  8  1  0  0  0
  8  9  2  0  0  0
  7 10  1  0  0  0
  7 11  1  0  0  0
  8 12  1  0  0  0
M  END
$$$$
