


 12 10  0  0  1  0            999 V2000
   -3.8191   -0.2051    4.8137 N   0  0  0  0  0  0
   -3.0733    0.4119    3.9084 C   0  0  0  0  0  0
   -2.7048    1.5678    4.0186 O   0  0  0  0  0  0
   -3.9353    0.2827    5.7053 H   0  0  0  0  0  0
   -4.0377   -1.2021    4.7439 H   0  0  0  0  0  0
   -2.6966   -0.3704    3.2056 H   0  0  0  0  0  0
   -6.1128    1.2613   -2.8367 N   0  0  0  0  0  0
   -5.1231    1.9966   -2.3136 C   0  0  0  0  0  0
   -5.3156    3.2102   -1.9914 O   0  0  0  0  0  0
   -7.0279    1.6755   -3.0304 H   0  0  0  0  0  0
   -5.9596    0.2624   -2.9953 H   0  0  0  0  0  0
   -4.1100    1.5403   -2.1996 H   0  0  0  0  0  0
  1  2  1  0  0  0
  2  3  2  0  0  0
  1  4  1  0  0  0
  1  5  1  0  0  0
  2  6  1  0  0  0
  7  8  1  0  0  0
  8  9  2  0  0  0
  7 10  1  0  0  0
  7 11  1  0  0  0
  8 12  1  0  0  0
M  END
$$$$
