


 12 10  0  0  1  0            999 V2000
    2.1205    7.3666   10.4570 N   0  0  0  0  0  0
    2.5861    6.9653   11.6381 C   0  0  0  0  0  0
    2.0025    6.1094   12.2963 O   0  0  0  0  0  0
    1.2023    7.0252   10.1622 H   0  0  0  0  0  0
    2.6166    8.0566    9.8875 H   0  0  0  0  0  0
    3.6154    7.3853   11.7473 H   0  0  0  0  0  0
   -1.2780    4.4844   12.0370 N   0  0  0  0  0  0
   -1.5247    4.4175   10.7174 C   0  0  0  0  0  0
   -1.0743    5.1664    9.8640 O   0  0  0  0  0  0
   -0.5926    5.1094   12.4684 H   0  0  0  0  0  0
   -1.8280    3.8482   12.6195 H   0  0  0  0  0  0
   -2.2796    3.6224   10.5036 H   0  0  0  0  0  0
  1  2  1  0  0  0
  2  3  2  0  0  0
  1  4  1  0  0  0
  1  5  1  0  0  0
  2  6  1  0  0  0
  7  8  1  0  0  0
  8  9  2  0  0  0
  7 10  1  0  0  0
  7 11  1  0  0  0
  8 12  1  0  0  0
M  END
$$$$
