


 12 10  0  0  1  0            999 V2000
   -1.9220   -2.3280   -1.2917 N   0  0  0  0  0  0
   -1.0341   -2.4416   -2.2844 C   0  0  0  0  0  0
    0.1070   -2.9174   -2.1262 O   0  0  0  0  0  0
   -1.7417   -2.6392   -0.3340 H   0  0  0  0  0  0
   -2.8842   -2.2200   -1.6218 H   0  0  0  0  0  0
   -1.4191   -2.0975   -3.2749 H   0  0  0  0  0  0
   -3.2327    2.4339    3.7780 N   0  0  0  0  0  0
   -2.3277    3.0828    2.9982 C   0  0  0  0  0  0
   -1.1361    2.8425    3.0550 O   0  0  0  0  0  0
   -2.8690    1.9519    4.6038 H   0  0  0  0  0  0
   -4.1984    2.7713    3.7666 H   0  0  0  0  0  0
   -2.8373    3.7523    2.2635 H   0  0  0  0  0  0
  1  2  1  0  0  0
  2  3  2  0  0  0
  1  4  1  0  0  0
  1  5  1  0  0  0
  2  6  1  0  0  0
  7  8  1  0  0  0
  8  9  2  0  0  0
  7 10  1  0  0  0
  7 11  1  0  0  0
  8 12  1  0  0  0
M  END
$$$$
