


 12 10  0  0  1  0            999 V2000
   -3.2327    2.4339    3.7780 N   0  0  0  0  0  0
   -2.3277    3.0828    2.9982 C   0  0  0  0  0  0
   -1.1361    2.8425    3.0550 O   0  0  0  0  0  0
   -2.8690    1.9519    4.6038 H   0  0  0  0  0  0
   -4.1984    2.7713    3.7666 H   0  0  0  0  0  0
   -2.8373    3.7523    2.2635 H   0  0  0  0  0  0
   -5.2186   -2.0752   -4.9411 N   0  0  0  0  0  0
   -4.7312   -2.4100   -3.6895 C   0  0  0  0  0  0
   -4.2726   -1.6010   -2.9076 O   0  0  0  0  0  0
   -5.2677   -1.1000   -5.2462 H   0  0  0  0  0  0
   -5.5078   -2.8246   -5.5746 H   0  0  0  0  0  0
   -4.6916   -3.5183   -3.5563 H   0  0  0  0  0  0
  1  2  1  0  0  0
  2  3  2  0  0  0
  1  4  1  0  0  0
  1  5  1  0  0  0
  2  6  1  0  0  0
  7  8  1  0  0  0
  8  9  2  0  0  0
  7 10  1  0  0  0
  7 11  1  0  0  0
  8 12  1  0  0  0
M  END
$$$$
