


 12 10  0  0  1  0            999 V2000
   -0.0186    3.6016    1.7326 N   0  0  0  0  0  0
    0.1178    4.0539    0.4949 C   0  0  0  0  0  0
    0.8936    4.8954    0.1248 O   0  0  0  0  0  0
    0.5247    4.1032    2.4395 H   0  0  0  0  0  0
   -0.8275    3.0410    2.0117 H   0  0  0  0  0  0
   -0.5966    3.6702   -0.2733 H   0  0  0  0  0  0
   -0.2044    5.5434   -3.2197 N   0  0  0  0  0  0
   -0.0478    5.5030   -4.5112 C   0  0  0  0  0  0
   -0.4734    4.6367   -5.2917 O   0  0  0  0  0  0
   -0.7042    4.7900   -2.7410 H   0  0  0  0  0  0
    0.1284    6.3533   -2.6906 H   0  0  0  0  0  0
    0.3779    6.4644   -4.8881 H   0  0  0  0  0  0
  1  2  1  0  0  0
  2  3  2  0  0  0
  1  4  1  0  0  0
  1  5  1  0  0  0
  2  6  1  0  0  0
  7  8  1  0  0  0
  8  9  2  0  0  0
  7 10  1  0  0  0
  7 11  1  0  0  0
  8 12  1  0  0  0
M  END
$$$$
