


 24 23  0  0  1  0            999 V2000
    3.0064    3.2562   -0.5595 C   0  0  0  0  0  0
    4.3142    2.5940   -0.1359 C   0  0  0  0  0  0
    4.5761    2.6944    1.3640 C   0  0  0  0  0  0
    3.3994    1.7672    2.3839 S   0  0  0  0  0  0
    1.8956    2.6035    1.8407 C   0  0  0  0  0  0
    1.5217    2.4392    0.0831 S   0  0  0  0  0  0
    2.8949    3.2294   -1.6605 H   0  0  0  0  0  0
    2.9936    4.3178   -0.2457 H   0  0  0  0  0  0
    4.3123    1.5310   -0.4448 H   0  0  0  0  0  0
    5.1450    3.0973   -0.6669 H   0  0  0  0  0  0
    4.5696    3.7537    1.6854 H   0  0  0  0  0  0
    5.5683    2.2726    1.6154 H   0  0  0  0  0  0
    1.9418    3.6748    2.1159 H   0  0  0  0  0  0
    1.0526    2.1493    2.3960 H   0  0  0  0  0  0
    1.2104   -0.6023    3.3870 C   0  0  0  0  0  0
    0.7915   -0.4048    1.9386 C   0  0  0  0  0  0
   -0.2904    0.5853    1.8664 N   0  0  0  0  0  0
    1.5296    0.3598    3.8217 H   0  0  0  0  0  0
    2.0491   -1.3153    3.4565 H   0  0  0  0  0  0
    0.3663   -0.9934    3.9796 H   0  0  0  0  0  0
    1.6447   -0.0030    1.3590 H   0  0  0  0  0  0
    0.5180   -1.3838    1.5002 H   0  0  0  0  0  0
   -0.5823    0.7242    0.8926 H   0  0  0  0  0  0
   -1.1151    0.2302    2.3627 H   0  0  0  0  0  0
  1  2  1  0  0  0
  2  3  1  0  0  0
  3  4  1  0  0  0
  4  5  1  0  0  0
  5  6  1  0  0  0
  1  6  1  0  0  0
  1  7  1  0  0  0
  1  8  1  0  0  0
  2  9  1  0  0  0
  2 10  1  0  0  0
  3 11  1  0  0  0
  3 12  1  0  0  0
  5 13  1  0  0  0
  5 14  1  0  0  0
 15 16  1  0  0  0
 16 17  1  0  0  0
 15 18  1  0  0  0
 15 19  1  0  0  0
 15 20  1  0  0  0
 16 21  1  0  0  0
 16 22  1  0  0  0
 17 23  1  0  0  0
 17 24  1  0  0  0
M  END
$$$$
