


 30 28  0  0  1  0            999 V2000
   -1.7581    5.8767  -12.8217 C   0  0  0  0  0  0
   -3.1884    5.3229  -13.1561 C   0  0  0  0  0  0
   -3.8718    6.1200  -14.3475 C   0  0  0  0  0  0
   -3.1404    5.9065  -15.6087 O   0  0  0  0  0  0
   -5.2951    5.8141  -14.6337 C   0  0  0  0  0  0
   -1.0979    5.8775  -13.7053 H   0  0  0  0  0  0
   -1.2516    5.3361  -12.0045 H   0  0  0  0  0  0
   -1.9224    6.9202  -12.5044 H   0  0  0  0  0  0
   -3.1159    4.2459  -13.4014 H   0  0  0  0  0  0
   -3.7302    5.4135  -12.1951 H   0  0  0  0  0  0
   -3.8019    7.1758  -14.0155 H   0  0  0  0  0  0
   -2.7435    6.7774  -15.8195 H   0  0  0  0  0  0
   -5.8992    5.9766  -13.7252 H   0  0  0  0  0  0
   -5.3261    4.7417  -14.8898 H   0  0  0  0  0  0
   -5.7447    6.3868  -15.4622 H   0  0  0  0  0  0
   -2.3467   -3.1111  -14.7256 C   0  0  0  0  0  0
   -1.3573   -2.2921  -15.5270 C   0  0  0  0  0  0
   -1.8883   -1.7097  -16.8477 C   0  0  0  0  0  0
   -3.0183   -0.9465  -16.6936 O   0  0  0  0  0  0
   -0.8712   -0.9446  -17.7277 C   0  0  0  0  0  0
   -1.9459   -3.2665  -13.7098 H   0  0  0  0  0  0
   -2.6699   -4.0854  -15.1292 H   0  0  0  0  0  0
   -3.2262   -2.4486  -14.6592 H   0  0  0  0  0  0
   -0.9622   -1.5723  -14.7845 H   0  0  0  0  0  0
   -0.5862   -3.0706  -15.6844 H   0  0  0  0  0  0
   -2.3039   -2.4701  -17.5396 H   0  0  0  0  0  0
   -2.6991   -0.0550  -16.4410 H   0  0  0  0  0  0
   -0.6047    0.0715  -17.3911 H   0  0  0  0  0  0
   -1.3495   -0.8727  -18.7190 H   0  0  0  0  0  0
    0.0542   -1.5367  -17.8256 H   0  0  0  0  0  0
  1  2  1  0  0  0
  2  3  1  0  0  0
  3  4  1  0  0  0
  3  5  1  0  0  0
  1  6  1  0  0  0
  1  7  1  0  0  0
  1  8  1  0  0  0
  2  9  1  0  0  0
  2 10  1  0  0  0
  3 11  1  0  0  0
  4 12  1  0  0  0
  5 13  1  0  0  0
  5 14  1  0  0  0
  5 15  1  0  0  0
 16 17  1  0  0  0
 17 18  1  0  0  0
 18 19  1  0  0  0
 18 20  1  0  0  0
 16 21  1  0  0  0
 16 22  1  0  0  0
 16 23  1  0  0  0
 17 24  1  0  0  0
 17 25  1  0  0  0
 18 26  1  0  0  0
 19 27  1  0  0  0
 20 28  1  0  0  0
 20 29  1  0  0  0
 20 30  1  0  0  0
M  END
$$$$
