


 30 28  0  0  1  0            999 V2000
    0.0000    0.0000    0.0000 C   0  0  0  0  0  0
   -0.6169   -1.0769    0.9882 C   0  0  0  0  0  0
   -1.7979   -0.6787    1.8420 C   0  0  0  0  0  0
   -1.3133    0.3386    2.7425 O   0  0  0  0  0  0
   -2.8339    0.0305    0.9591 C   0  0  0  0  0  0
    0.9167   -0.3779   -0.4831 H   0  0  0  0  0  0
    0.2443    0.9313    0.5382 H   0  0  0  0  0  0
   -0.7412    0.2306   -0.7836 H   0  0  0  0  0  0
   -1.0099   -1.9467    0.4274 H   0  0  0  0  0  0
    0.1840   -1.4430    1.6590 H   0  0  0  0  0  0
   -2.3215   -1.4814    2.4002 H   0  0  0  0  0  0
   -0.7823   -0.0971    3.4416 H   0  0  0  0  0  0
   -3.1766   -0.7641    0.2752 H   0  0  0  0  0  0
   -2.6275    0.9386    0.3679 H   0  0  0  0  0  0
   -3.6438    0.2528    1.6741 H   0  0  0  0  0  0
   -7.1742   -1.7714    5.1756 C   0  0  0  0  0  0
   -7.1226   -0.8458    3.8724 C   0  0  0  0  0  0
   -6.6443   -1.6207    2.6479 C   0  0  0  0  0  0
   -7.4856   -2.7134    2.4178 O   0  0  0  0  0  0
   -6.5149   -0.8784    1.3497 C   0  0  0  0  0  0
   -6.2700   -2.3958    5.2713 H   0  0  0  0  0  0
   -8.0364   -2.4294    4.9751 H   0  0  0  0  0  0
   -7.3446   -1.2499    6.1325 H   0  0  0  0  0  0
   -8.1019   -0.3474    3.7378 H   0  0  0  0  0  0
   -6.3671   -0.0585    4.0591 H   0  0  0  0  0  0
   -5.6114   -1.9636    2.8610 H   0  0  0  0  0  0
   -8.1112   -2.6981    3.1720 H   0  0  0  0  0  0
   -7.5081   -0.4434    1.1471 H   0  0  0  0  0  0
   -6.1892   -1.4416    0.4590 H   0  0  0  0  0  0
   -5.8006   -0.0569    1.5271 H   0  0  0  0  0  0
  1  2  1  0  0  0
  2  3  1  0  0  0
  3  4  1  0  0  0
  3  5  1  0  0  0
  1  6  1  0  0  0
  1  7  1  0  0  0
  1  8  1  0  0  0
  2  9  1  0  0  0
  2 10  1  0  0  0
  3 11  1  0  0  0
  4 12  1  0  0  0
  5 13  1  0  0  0
  5 14  1  0  0  0
  5 15  1  0  0  0
 16 17  1  0  0  0
 17 18  1  0  0  0
 18 19  1  0  0  0
 18 20  1  0  0  0
 16 21  1  0  0  0
 16 22  1  0  0  0
 16 23  1  0  0  0
 17 24  1  0  0  0
 17 25  1  0  0  0
 18 26  1  0  0  0
 19 27  1  0  0  0
 20 28  1  0  0  0
 20 29  1  0  0  0
 20 30  1  0  0  0
M  END
$$$$
