


 30 28  0  0  1  0            999 V2000
    0.8485    2.8184   -5.7163 C   0  0  0  0  0  0
   -0.2040    3.6786   -4.9791 C   0  0  0  0  0  0
    0.3008    4.5863   -3.8741 C   0  0  0  0  0  0
    1.1432    3.8493   -2.9589 O   0  0  0  0  0  0
    1.2789    5.6413   -4.3506 C   0  0  0  0  0  0
    0.3574    2.1245   -6.4191 H   0  0  0  0  0  0
    1.5219    2.2390   -5.0625 H   0  0  0  0  0  0
    1.4526    3.5367   -6.2956 H   0  0  0  0  0  0
   -0.8161    4.2965   -5.6639 H   0  0  0  0  0  0
   -0.8600    2.8927   -4.5578 H   0  0  0  0  0  0
   -0.4903    5.1101   -3.3000 H   0  0  0  0  0  0
    0.6209    3.2051   -2.4367 H   0  0  0  0  0  0
    2.2456    5.2637   -4.7243 H   0  0  0  0  0  0
    1.4739    6.3902   -3.5646 H   0  0  0  0  0  0
    0.7485    6.1344   -5.1825 H   0  0  0  0  0  0
    3.2598   -6.5079    3.0735 C   0  0  0  0  0  0
    1.9502   -6.0273    2.4825 C   0  0  0  0  0  0
    1.9813   -4.5892    1.7983 C   0  0  0  0  0  0
    2.9413   -4.6731    0.7125 O   0  0  0  0  0  0
    0.6247   -4.1588    1.2447 C   0  0  0  0  0  0
    3.0755   -7.3939    3.7040 H   0  0  0  0  0  0
    3.6194   -5.6871    3.7167 H   0  0  0  0  0  0
    4.0489   -6.7539    2.3431 H   0  0  0  0  0  0
    1.5649   -6.7584    1.7459 H   0  0  0  0  0  0
    1.1888   -5.9186    3.2787 H   0  0  0  0  0  0
    2.4023   -3.8436    2.5031 H   0  0  0  0  0  0
    2.6423   -5.3591    0.0798 H   0  0  0  0  0  0
    0.6242   -3.0664    1.0920 H   0  0  0  0  0  0
   -0.2102   -4.4205    1.9164 H   0  0  0  0  0  0
    0.4602   -4.6502    0.2710 H   0  0  0  0  0  0
  1  2  1  0  0  0
  2  3  1  0  0  0
  3  4  1  0  0  0
  3  5  1  0  0  0
  1  6  1  0  0  0
  1  7  1  0  0  0
  1  8  1  0  0  0
  2  9  1  0  0  0
  2 10  1  0  0  0
  3 11  1  0  0  0
  4 12  1  0  0  0
  5 13  1  0  0  0
  5 14  1  0  0  0
  5 15  1  0  0  0
 16 17  1  0  0  0
 17 18  1  0  0  0
 18 19  1  0  0  0
 18 20  1  0  0  0
 16 21  1  0  0  0
 16 22  1  0  0  0
 16 23  1  0  0  0
 17 24  1  0  0  0
 17 25  1  0  0  0
 18 26  1  0  0  0
 19 27  1  0  0  0
 20 28  1  0  0  0
 20 29  1  0  0  0
 20 30  1  0  0  0
M  END
$$$$
