


 30 28  0  0  1  0            999 V2000
    8.7201   -6.7007   -6.1610 C   0  0  0  0  0  0
   10.2926   -6.4968   -6.3221 C   0  0  0  0  0  0
   10.8137   -6.4596   -7.8252 C   0  0  0  0  0  0
   12.1688   -6.1849   -7.7836 O   0  0  0  0  0  0
   10.6416   -7.8294   -8.5119 C   0  0  0  0  0  0
    8.1709   -5.9907   -6.8020 H   0  0  0  0  0  0
    8.3194   -6.6315   -5.1357 H   0  0  0  0  0  0
    8.5463   -7.7224   -6.5384 H   0  0  0  0  0  0
   10.6060   -5.5711   -5.8020 H   0  0  0  0  0  0
   10.8464   -7.3414   -5.8689 H   0  0  0  0  0  0
   10.3354   -5.6884   -8.4627 H   0  0  0  0  0  0
   12.5801   -6.3508   -8.6575 H   0  0  0  0  0  0
   11.1397   -8.6186   -7.9240 H   0  0  0  0  0  0
   11.0724   -7.8221   -9.5273 H   0  0  0  0  0  0
    9.5680   -8.0712   -8.5870 H   0  0  0  0  0  0
   13.5642   -8.6681   -6.6897 C   0  0  0  0  0  0
   13.7722   -7.5734   -5.5746 C   0  0  0  0  0  0
   15.1854   -6.9431   -5.7204 C   0  0  0  0  0  0
   15.1709   -6.2158   -6.9077 O   0  0  0  0  0  0
   15.5348   -5.9414   -4.6263 C   0  0  0  0  0  0
   14.0516   -9.6537   -6.6017 H   0  0  0  0  0  0
   13.7687   -8.2630   -7.6950 H   0  0  0  0  0  0
   12.4751   -8.8032   -6.5795 H   0  0  0  0  0  0
   12.9818   -6.8005   -5.6329 H   0  0  0  0  0  0
   13.6653   -8.0913   -4.6021 H   0  0  0  0  0  0
   15.9671   -7.7053   -5.9147 H   0  0  0  0  0  0
   14.6426   -5.3989   -6.7894 H   0  0  0  0  0  0
   14.8421   -5.0865   -4.7027 H   0  0  0  0  0  0
   16.5690   -5.5580   -4.6335 H   0  0  0  0  0  0
   15.3564   -6.4541   -3.6661 H   0  0  0  0  0  0
  1  2  1  0  0  0
  2  3  1  0  0  0
  3  4  1  0  0  0
  3  5  1  0  0  0
  1  6  1  0  0  0
  1  7  1  0  0  0
  1  8  1  0  0  0
  2  9  1  0  0  0
  2 10  1  0  0  0
  3 11  1  0  0  0
  4 12  1  0  0  0
  5 13  1  0  0  0
  5 14  1  0  0  0
  5 15  1  0  0  0
 16 17  1  0  0  0
 17 18  1  0  0  0
 18 19  1  0  0  0
 18 20  1  0  0  0
 16 21  1  0  0  0
 16 22  1  0  0  0
 16 23  1  0  0  0
 17 24  1  0  0  0
 17 25  1  0  0  0
 18 26  1  0  0  0
 19 27  1  0  0  0
 20 28  1  0  0  0
 20 29  1  0  0  0
 20 30  1  0  0  0
M  END
$$$$
