


  4  2  0  0  1  0            999 V2000
   -1.1988    1.8993   -2.3286 O   0  0  0  0  0  0
   -0.6077    2.4746   -2.8651 H   0  0  0  0  0  0
   -0.5975    1.4522   -1.6908 H   0  0  0  0  0  0
    0.2946   -0.5439    0.6538 Cl  0  0  0  0  0  0
  1  2  1  0  0  0
  1  3  1  0  0  0
M  CHG  1   4  -1
M  END
$$$$
