


 30 30  0  0  1  0            999 V2000
    2.2645    0.2779   -0.9515 C   0  0  0  0  0  0
    3.0735   -0.3292    0.1966 C   0  0  0  0  0  0
    2.2032   -0.5170    1.4410 C   0  0  0  0  0  0
    0.9733   -1.3711    1.1257 C   0  0  0  0  0  0
    0.1643   -0.7639   -0.0224 C   0  0  0  0  0  0
    1.0346   -0.5761   -1.2668 C   0  0  0  0  0  0
    2.8990    0.3805   -1.8528 H   0  0  0  0  0  0
    1.9308    1.2917   -0.6576 H   0  0  0  0  0  0
    3.4616   -1.3160   -0.1213 H   0  0  0  0  0  0
    3.9429    0.3142    0.4327 H   0  0  0  0  0  0
    1.8679    0.4762    1.7968 H   0  0  0  0  0  0
    2.7938   -0.9836    2.2528 H   0  0  0  0  0  0
    0.3389   -1.4737    2.0270 H   0  0  0  0  0  0
    1.3071   -2.3848    0.8318 H   0  0  0  0  0  0
   -0.2238    0.2228    0.2955 H   0  0  0  0  0  0
   -0.7051   -1.4073   -0.2584 H   0  0  0  0  0  0
    0.4441   -0.1096   -2.0786 H   0  0  0  0  0  0
    1.3700   -1.5693   -1.6225 H   0  0  0  0  0  0
    1.7280    3.5910    1.7088 C   0  0  0  0  0  0
    0.3932    3.2134    1.5581 C   0  0  0  0  0  0
   -0.2781    2.5885    2.6098 C   0  0  0  0  0  0
    0.3854    2.3413    3.8122 C   0  0  0  0  0  0
    1.7203    2.7190    3.9629 C   0  0  0  0  0  0
    2.3915    3.3438    2.9112 C   0  0  0  0  0  0
    2.2562    4.0827    0.8813 H   0  0  0  0  0  0
   -0.1289    3.4079    0.6120 H   0  0  0  0  0  0
   -1.3285    2.2914    2.4912 H   0  0  0  0  0  0
   -0.1428    1.8497    4.6397 H   0  0  0  0  0  0
    2.2424    2.5245    4.9090 H   0  0  0  0  0  0
    3.4419    3.6410    3.0298 H   0  0  0  0  0  0
  1  2  1  0  0  0
  2  3  1  0  0  0
  3  4  1  0  0  0
  4  5  1  0  0  0
  5  6  1  0  0  0
  1  6  1  0  0  0
  1  7  1  0  0  0
  1  8  1  0  0  0
  2  9  1  0  0  0
  2 10  1  0  0  0
  3 11  1  0  0  0
  3 12  1  0  0  0
  4 13  1  0  0  0
  4 14  1  0  0  0
  5 15  1  0  0  0
  5 16  1  0  0  0
  6 17  1  0  0  0
  6 18  1  0  0  0
 19 20  1  0  0  0
 20 21  2  0  0  0
 21 22  1  0  0  0
 22 23  2  0  0  0
 23 24  1  0  0  0
 19 24  2  0  0  0
 19 25  1  0  0  0
 20 26  1  0  0  0
 21 27  1  0  0  0
 22 28  1  0  0  0
 23 29  1  0  0  0
 24 30  1  0  0  0
M  END
$$$$
