


 11  9  0  0  1  0            999 V2000
    0.0000    0.0000    0.0000 F   0  0  0  0  0  0
   -0.5211   -0.0529    1.2100 C   0  0  0  0  0  0
   -2.0275   -0.5242    1.1096 C   0  0  0  0  0  0
   -2.5869    0.2485    0.1660 F   0  0  0  0  0  0
   -2.0336   -1.8090    0.7212 F   0  0  0  0  0  0
   -2.5745   -0.2708    2.2933 F   0  0  0  0  0  0
    0.0947   -0.7469    1.8139 H   0  0  0  0  0  0
   -0.3809    0.9656    1.6203 H   0  0  0  0  0  0
   -0.5155   -0.9762   -3.0859 O   0  0  0  0  0  0
   -0.9879   -0.2178   -2.6736 H   0  0  0  0  0  0
    0.3290   -1.0441   -2.5855 H   0  0  0  0  0  0
  1  2  1  0  0  0
  2  3  1  0  0  0
  3  4  1  0  0  0
  3  5  1  0  0  0
  3  6  1  0  0  0
  2  7  1  0  0  0
  2  8  1  0  0  0
  9 10  1  0  0  0
  9 11  1  0  0  0
M  END
$$$$
