


 18 16  0  0  1  0            999 V2000
   -1.1655    3.5284   -4.7300 C   0  0  0  0  0  0
   -1.1749    2.1266   -4.6871 O   0  0  0  0  0  0
   -2.0378    1.4792   -5.6317 C   0  0  0  0  0  0
   -0.6820    3.7804   -5.6888 H   0  0  0  0  0  0
   -0.6095    4.0218   -3.9152 H   0  0  0  0  0  0
   -2.1958    3.9221   -4.7415 H   0  0  0  0  0  0
   -1.7415    1.8065   -6.6425 H   0  0  0  0  0  0
   -3.0578    1.8464   -5.4279 H   0  0  0  0  0  0
   -2.0496    0.3766   -5.6083 H   0  0  0  0  0  0
   -5.0881   -0.1907   -8.0996 C   0  0  0  0  0  0
   -3.7474    0.0130   -7.6843 O   0  0  0  0  0  0
   -2.9798    0.5943   -8.7289 C   0  0  0  0  0  0
   -5.4906    0.7201   -8.5739 H   0  0  0  0  0  0
   -5.7257   -0.4495   -7.2375 H   0  0  0  0  0  0
   -5.1317   -1.0162   -8.8298 H   0  0  0  0  0  0
   -1.9257    0.6335   -8.4065 H   0  0  0  0  0  0
   -3.3275    1.6234   -8.9207 H   0  0  0  0  0  0
   -3.0388    0.0219   -9.6699 H   0  0  0  0  0  0
  1  2  1  0  0  0
  2  3  1  0  0  0
  1  4  1  0  0  0
  1  5  1  0  0  0
  1  6  1  0  0  0
  3  7  1  0  0  0
  3  8  1  0  0  0
  3  9  1  0  0  0
 10 11  1  0  0  0
 11 12  1  0  0  0
 10 13  1  0  0  0
 10 14  1  0  0  0
 10 15  1  0  0  0
 12 16  1  0  0  0
 12 17  1  0  0  0
 12 18  1  0  0  0
M  END
$$$$
