


 18 16  0  0  1  0            999 V2000
    0.3643   -4.5549    2.0317 C   0  0  0  0  0  0
   -0.7949   -4.7438    2.8060 O   0  0  0  0  0  0
   -1.2336   -3.6227    3.5259 C   0  0  0  0  0  0
    0.8178   -5.5395    1.8281 H   0  0  0  0  0  0
    1.1018   -3.9311    2.5642 H   0  0  0  0  0  0
    0.1248   -4.0721    1.0693 H   0  0  0  0  0  0
   -2.0638   -3.9307    4.1835 H   0  0  0  0  0  0
   -1.5863   -2.8068    2.8728 H   0  0  0  0  0  0
   -0.4109   -3.2405    4.1534 H   0  0  0  0  0  0
    2.6177   -2.9213   -5.0595 C   0  0  0  0  0  0
    3.0738   -1.8735   -4.2111 O   0  0  0  0  0  0
    2.0526   -0.8384   -4.0204 C   0  0  0  0  0  0
    1.7679   -3.4110   -4.5550 H   0  0  0  0  0  0
    3.3831   -3.6843   -5.2800 H   0  0  0  0  0  0
    2.2623   -2.4939   -6.0123 H   0  0  0  0  0  0
    2.5938   -0.0552   -3.4633 H   0  0  0  0  0  0
    1.1572   -1.1253   -3.4436 H   0  0  0  0  0  0
    1.7285   -0.4212   -4.9887 H   0  0  0  0  0  0
  1  2  1  0  0  0
  2  3  1  0  0  0
  1  4  1  0  0  0
  1  5  1  0  0  0
  1  6  1  0  0  0
  3  7  1  0  0  0
  3  8  1  0  0  0
  3  9  1  0  0  0
 10 11  1  0  0  0
 11 12  1  0  0  0
 10 13  1  0  0  0
 10 14  1  0  0  0
 10 15  1  0  0  0
 12 16  1  0  0  0
 12 17  1  0  0  0
 12 18  1  0  0  0
M  END
$$$$
