


 18 16  0  0  1  0            999 V2000
    6.3066    9.2502   13.3784 C   0  0  0  0  0  0
    5.7660   10.5112   13.6917 O   0  0  0  0  0  0
    6.1459   11.4921   12.6402 C   0  0  0  0  0  0
    7.4045    9.2524   13.4842 H   0  0  0  0  0  0
    6.0551    9.0432   12.3246 H   0  0  0  0  0  0
    5.8945    8.4406   14.0040 H   0  0  0  0  0  0
    7.2408   11.5034   12.5074 H   0  0  0  0  0  0
    5.8168   12.5028   12.9347 H   0  0  0  0  0  0
    5.6771   11.2368   11.6749 H   0  0  0  0  0  0
    3.1270    7.3217   13.1197 C   0  0  0  0  0  0
    3.4573    8.2937   12.1114 O   0  0  0  0  0  0
    2.8967    9.5130   12.5668 C   0  0  0  0  0  0
    3.5321    6.3163   12.9157 H   0  0  0  0  0  0
    2.0305    7.2469   13.2134 H   0  0  0  0  0  0
    3.5385    7.6789   14.0787 H   0  0  0  0  0  0
    3.1258    9.7083   13.6279 H   0  0  0  0  0  0
    1.8026    9.5471   12.4310 H   0  0  0  0  0  0
    3.3520   10.3107   11.9560 H   0  0  0  0  0  0
  1  2  1  0  0  0
  2  3  1  0  0  0
  1  4  1  0  0  0
  1  5  1  0  0  0
  1  6  1  0  0  0
  3  7  1  0  0  0
  3  8  1  0  0  0
  3  9  1  0  0  0
 10 11  1  0  0  0
 11 12  1  0  0  0
 10 13  1  0  0  0
 10 14  1  0  0  0
 10 15  1  0  0  0
 12 16  1  0  0  0
 12 17  1  0  0  0
 12 18  1  0  0  0
M  END
$$$$
