


 23 21  0  0  1  0            999 V2000
   -1.0610    0.9775    0.6273 C   0  0  0  0  0  0
   -0.5268    1.6428    1.8168 C   0  0  0  0  0  0
   -0.0830    2.1960    2.8059 C   0  0  0  0  0  0
    0.4504    2.8615    3.9956 C   0  0  0  0  0  0
   -1.4495    1.7230   -0.0867 H   0  0  0  0  0  0
   -1.8822    0.2958    0.9059 H   0  0  0  0  0  0
   -0.2709    0.3913    0.1288 H   0  0  0  0  0  0
    0.3799    3.9568    3.8860 H   0  0  0  0  0  0
   -0.1190    2.5601    4.8909 H   0  0  0  0  0  0
    1.5091    2.5903    4.1442 H   0  0  0  0  0  0
    2.7323   -1.7709    2.9979 C   0  0  0  0  0  0
    2.5167   -0.4692    2.3742 N   0  0  0  0  0  0
    3.4203    0.1540    1.6261 C   0  0  0  0  0  0
    3.1469    1.3481    1.0878 N   0  0  0  0  0  0
    2.2372    1.7864    1.2516 H   0  0  0  0  0  0
    3.8472    1.8228    0.5125 H   0  0  0  0  0  0
    4.6086   -0.4139    1.4095 N   0  0  0  0  0  0
    1.8204   -2.0430    3.5556 H   0  0  0  0  0  0
    3.5804   -1.7427    3.7026 H   0  0  0  0  0  0
    2.9283   -2.5502    2.2424 H   0  0  0  0  0  0
    1.6165   -0.0055    2.5198 H   0  0  0  0  0  0
    4.8207   -1.3267    1.8196 H   0  0  0  0  0  0
    5.3070    0.0630    0.8339 H   0  0  0  0  0  0
  1  2  1  0  0  0
  2  3  3  0  0  0
  3  4  1  0  0  0
  1  5  1  0  0  0
  1  6  1  0  0  0
  1  7  1  0  0  0
  4  8  1  0  0  0
  4  9  1  0  0  0
  4 10  1  0  0  0
 11 12  1  0  0  0
 12 13  1  0  0  0
 13 14  2  0  0  0
 14 15  1  0  0  0
 14 16  1  0  0  0
 13 17  1  0  0  0
 11 18  1  0  0  0
 11 19  1  0  0  0
 11 20  1  0  0  0
 12 21  1  0  0  0
 17 22  1  0  0  0
 17 23  1  0  0  0
M  CHG  1  14   1
M  END
$$$$
