


 22 22  0  0  1  0            999 V2000
    2.6608    0.1130   -7.2410 C   0  0  0  0  0  0
    3.3920   -1.1431   -6.1822 S   0  0  0  0  0  0
    1.8894   -1.1955   -5.1433 C   0  0  0  0  0  0
    0.6241   -1.2238   -6.0506 C   0  0  0  0  0  0
    0.8200    0.2208   -7.2040 S   0  0  0  0  0  0
    2.9465   -0.1596   -8.2752 H   0  0  0  0  0  0
    3.0941    1.1082   -7.0234 H   0  0  0  0  0  0
    1.9093   -0.3192   -4.4673 H   0  0  0  0  0  0
    1.9185   -2.1063   -4.5146 H   0  0  0  0  0  0
   -0.2661   -1.1713   -5.3947 H   0  0  0  0  0  0
    0.5261   -2.1298   -6.6792 H   0  0  0  0  0  0
    6.6970   -1.6421    0.6122 C   0  0  0  0  0  0
    6.1563   -0.3865    1.7169 S   0  0  0  0  0  0
    6.0544   -1.6650    2.9908 C   0  0  0  0  0  0
    5.3122   -2.8577    2.4371 C   0  0  0  0  0  0
    5.9329   -3.2212    0.7535 S   0  0  0  0  0  0
    7.8025   -1.6129    0.6619 H   0  0  0  0  0  0
    6.3959   -1.2910   -0.3935 H   0  0  0  0  0  0
    5.5993   -1.3354    3.9446 H   0  0  0  0  0  0
    7.0697   -2.0444    3.2157 H   0  0  0  0  0  0
    4.2285   -2.6321    2.4231 H   0  0  0  0  0  0
    5.4546   -3.7886    3.0190 H   0  0  0  0  0  0
  1  2  1  0  0  0
  2  3  1  0  0  0
  3  4  1  0  0  0
  4  5  1  0  0  0
  1  5  1  0  0  0
  1  6  1  0  0  0
  1  7  1  0  0  0
  3  8  1  0  0  0
  3  9  1  0  0  0
  4 10  1  0  0  0
  4 11  1  0  0  0
 12 13  1  0  0  0
 13 14  1  0  0  0
 14 15  1  0  0  0
 15 16  1  0  0  0
 12 16  1  0  0  0
 12 17  1  0  0  0
 12 18  1  0  0  0
 14 19  1  0  0  0
 14 20  1  0  0  0
 15 21  1  0  0  0
 15 22  1  0  0  0
M  END
$$$$
