


 22 22  0  0  1  0            999 V2000
   16.5268   -9.2630  -11.4022 C   0  0  0  0  0  0
   17.4618   -8.3818  -10.1440 S   0  0  0  0  0  0
   17.5587   -9.7602   -9.0151 C   0  0  0  0  0  0
   16.3394  -10.5422   -9.1480 C   0  0  0  0  0  0
   15.9488  -10.8574  -10.8856 S   0  0  0  0  0  0
   17.2565   -9.3479  -12.2304 H   0  0  0  0  0  0
   15.6797   -8.6479  -11.7618 H   0  0  0  0  0  0
   17.8847   -9.5058   -7.9882 H   0  0  0  0  0  0
   18.3175  -10.4383   -9.4508 H   0  0  0  0  0  0
   15.5021   -9.8743   -8.8679 H   0  0  0  0  0  0
   16.2309  -11.4791   -8.5685 H   0  0  0  0  0  0
   14.4895   -6.4830   -7.5567 C   0  0  0  0  0  0
   14.5442   -5.3059   -8.9688 S   0  0  0  0  0  0
   13.0898   -4.3092   -8.5280 C   0  0  0  0  0  0
   12.8687   -4.2523   -7.0440 C   0  0  0  0  0  0
   13.6996   -5.5935   -6.2279 S   0  0  0  0  0  0
   15.5150   -6.8144   -7.3035 H   0  0  0  0  0  0
   13.9200   -7.3730   -7.8867 H   0  0  0  0  0  0
   12.1518   -4.8413   -8.7779 H   0  0  0  0  0  0
   13.0419   -3.3060   -8.9934 H   0  0  0  0  0  0
   11.8250   -4.4355   -6.7236 H   0  0  0  0  0  0
   13.1803   -3.2731   -6.6320 H   0  0  0  0  0  0
  1  2  1  0  0  0
  2  3  1  0  0  0
  3  4  1  0  0  0
  4  5  1  0  0  0
  1  5  1  0  0  0
  1  6  1  0  0  0
  1  7  1  0  0  0
  3  8  1  0  0  0
  3  9  1  0  0  0
  4 10  1  0  0  0
  4 11  1  0  0  0
 12 13  1  0  0  0
 13 14  1  0  0  0
 14 15  1  0  0  0
 15 16  1  0  0  0
 12 16  1  0  0  0
 12 17  1  0  0  0
 12 18  1  0  0  0
 14 19  1  0  0  0
 14 20  1  0  0  0
 15 21  1  0  0  0
 15 22  1  0  0  0
M  END
$$$$
