


 26 25  0  0  1  0            999 V2000
    1.2969   -0.5020    0.1189 C   0  0  0  0  0  0
    1.0819    1.0081    0.0245 C   0  0  0  0  0  0
    2.3908    1.7912    0.0969 C   0  0  0  0  0  0
    2.1757    3.3014    0.0026 C   0  0  0  0  0  0
    0.3359   -1.0406    0.0639 H   0  0  0  0  0  0
    1.7879   -0.7551    1.0736 H   0  0  0  0  0  0
    1.9401   -0.8447   -0.7091 H   0  0  0  0  0  0
    0.5743    1.2494   -0.9292 H   0  0  0  0  0  0
    0.4224    1.3389    0.8498 H   0  0  0  0  0  0
    2.8983    1.5500    1.0507 H   0  0  0  0  0  0
    3.0503    1.4605   -0.7283 H   0  0  0  0  0  0
    1.5325    3.6441    0.8306 H   0  0  0  0  0  0
    1.6848    3.5544   -0.9521 H   0  0  0  0  0  0
    3.1368    3.8399    0.0576 H   0  0  0  0  0  0
    1.7844    2.2698    4.0932 C   0  0  0  0  0  0
    2.9539    3.0301    4.0565 C   0  0  0  0  0  0
    4.1976    2.3975    4.0588 C   0  0  0  0  0  0
    4.2719    1.0047    4.0978 C   0  0  0  0  0  0
    3.1024    0.2444    4.1346 C   0  0  0  0  0  0
    1.8587    0.8770    4.1323 C   0  0  0  0  0  0
    0.8057    2.7676    4.0914 H   0  0  0  0  0  0
    2.8955    4.1261    4.0258 H   0  0  0  0  0  0
    5.1179    2.9958    4.0298 H   0  0  0  0  0  0
    5.2506    0.5069    4.0996 H   0  0  0  0  0  0
    3.1609   -0.8516    4.1653 H   0  0  0  0  0  0
    0.9384    0.2787    4.1612 H   0  0  0  0  0  0
  1  2  1  0  0  0
  2  3  1  0  0  0
  3  4  1  0  0  0
  1  5  1  0  0  0
  1  6  1  0  0  0
  1  7  1  0  0  0
  2  8  1  0  0  0
  2  9  1  0  0  0
  3 10  1  0  0  0
  3 11  1  0  0  0
  4 12  1  0  0  0
  4 13  1  0  0  0
  4 14  1  0  0  0
 15 16  1  0  0  0
 16 17  2  0  0  0
 17 18  1  0  0  0
 18 19  2  0  0  0
 19 20  1  0  0  0
 15 20  2  0  0  0
 15 21  1  0  0  0
 16 22  1  0  0  0
 17 23  1  0  0  0
 18 24  1  0  0  0
 19 25  1  0  0  0
 20 26  1  0  0  0
M  END
$$$$
