


 20 18  0  0  1  0            999 V2000
    3.5571    3.3018    1.3457 C   0  0  0  0  0  0
    2.8705    2.0641    1.8756 C   0  0  0  0  0  0
    2.1858    2.0885    2.8852 O   0  0  0  0  0  0
    3.0810    0.7945    1.0832 C   0  0  0  0  0  0
    3.3360    4.1699    1.9892 H   0  0  0  0  0  0
    3.2091    3.5244    0.3229 H   0  0  0  0  0  0
    4.6495    3.1515    1.3207 H   0  0  0  0  0  0
    2.7033    0.9194    0.0545 H   0  0  0  0  0  0
    4.1546    0.5461    1.0361 H   0  0  0  0  0  0
    2.5456   -0.0467    1.5548 H   0  0  0  0  0  0
   -1.0594    4.2036    0.3359 C   0  0  0  0  0  0
   -0.7528    2.9902   -0.4155 N   0  0  0  0  0  0
   -1.5084    1.8477    0.0892 C   0  0  0  0  0  0
   -0.6935    4.0754    1.3685 H   0  0  0  0  0  0
   -2.1380    4.4318    0.3706 H   0  0  0  0  0  0
   -0.5333    5.0591   -0.1200 H   0  0  0  0  0  0
   -0.9964    3.1400   -1.4029 H   0  0  0  0  0  0
   -2.5966    2.0257    0.1187 H   0  0  0  0  0  0
   -1.3128    0.9691   -0.5483 H   0  0  0  0  0  0
   -1.1606    1.6247    1.1119 H   0  0  0  0  0  0
  1  2  1  0  0  0
  2  3  2  0  0  0
  2  4  1  0  0  0
  1  5  1  0  0  0
  1  6  1  0  0  0
  1  7  1  0  0  0
  4  8  1  0  0  0
  4  9  1  0  0  0
  4 10  1  0  0  0
 11 12  1  0  0  0
 12 13  1  0  0  0
 11 14  1  0  0  0
 11 15  1  0  0  0
 11 16  1  0  0  0
 12 17  1  0  0  0
 13 18  1  0  0  0
 13 19  1  0  0  0
 13 20  1  0  0  0
M  END
$$$$
