


 24 22  0  0  1  0            999 V2000
   -3.6647   -0.6488   -4.3941 C   0  0  0  0  0  0
   -3.4055   -1.4154   -3.0793 C   0  0  0  0  0  0
   -1.9408   -1.2474   -2.5601 C   0  0  0  0  0  0
   -0.7904   -1.9030   -3.8349 S   0  0  0  0  0  0
   -3.1662    0.3350   -4.4088 H   0  0  0  0  0  0
   -4.7438   -0.4990   -4.5664 H   0  0  0  0  0  0
   -3.2587   -1.2612   -5.2168 H   0  0  0  0  0  0
   -4.0939   -0.9238   -2.3652 H   0  0  0  0  0  0
   -3.6809   -2.4864   -3.1292 H   0  0  0  0  0  0
   -1.8239   -1.7500   -1.5807 H   0  0  0  0  0  0
   -1.7263   -0.1713   -2.4140 H   0  0  0  0  0  0
   -0.7327   -3.1623   -3.3518 H   0  0  0  0  0  0
    5.0600    1.2363   -4.9181 C   0  0  0  0  0  0
    4.2966    1.8870   -3.7040 C   0  0  0  0  0  0
    5.2115    2.5752   -2.6638 C   0  0  0  0  0  0
    5.9450    1.3085   -1.5771 S   0  0  0  0  0  0
    5.6310    2.0015   -5.4703 H   0  0  0  0  0  0
    4.3896    0.7192   -5.6252 H   0  0  0  0  0  0
    5.7686    0.5001   -4.5027 H   0  0  0  0  0  0
    3.7012    2.6494   -4.2422 H   0  0  0  0  0  0
    3.5890    1.1726   -3.2410 H   0  0  0  0  0  0
    6.0718    3.0766   -3.1472 H   0  0  0  0  0  0
    4.6804    3.3312   -2.0540 H   0  0  0  0  0  0
    4.7576    0.8731   -1.1048 H   0  0  0  0  0  0
  1  2  1  0  0  0
  2  3  1  0  0  0
  3  4  1  0  0  0
  1  5  1  0  0  0
  1  6  1  0  0  0
  1  7  1  0  0  0
  2  8  1  0  0  0
  2  9  1  0  0  0
  3 10  1  0  0  0
  3 11  1  0  0  0
  4 12  1  0  0  0
 13 14  1  0  0  0
 14 15  1  0  0  0
 15 16  1  0  0  0
 13 17  1  0  0  0
 13 18  1  0  0  0
 13 19  1  0  0  0
 14 20  1  0  0  0
 14 21  1  0  0  0
 15 22  1  0  0  0
 15 23  1  0  0  0
 16 24  1  0  0  0
M  END
$$$$
