


 24 22  0  0  1  0            999 V2000
   -1.9004   -6.9829   -0.4324 C   0  0  0  0  0  0
   -2.0687   -5.6563   -1.1608 C   0  0  0  0  0  0
   -1.3912   -4.4998   -0.4993 C   0  0  0  0  0  0
   -1.4343   -3.0644   -1.5532 S   0  0  0  0  0  0
   -2.5121   -6.9992    0.4853 H   0  0  0  0  0  0
   -0.8632   -7.2499   -0.1687 H   0  0  0  0  0  0
   -2.2925   -7.7419   -1.1301 H   0  0  0  0  0  0
   -1.5802   -5.8245   -2.1398 H   0  0  0  0  0  0
   -3.1377   -5.4402   -1.3507 H   0  0  0  0  0  0
   -1.9470   -4.2863    0.4339 H   0  0  0  0  0  0
   -0.3583   -4.7823   -0.2186 H   0  0  0  0  0  0
   -0.5793   -2.2205   -0.9375 H   0  0  0  0  0  0
   -2.4486    6.1561   -1.1839 C   0  0  0  0  0  0
   -1.0802    5.4962   -1.4423 C   0  0  0  0  0  0
   -0.3019    5.4015   -0.1498 C   0  0  0  0  0  0
   -1.1050    4.3816    1.2125 S   0  0  0  0  0  0
   -3.0626    5.9242   -2.0703 H   0  0  0  0  0  0
   -2.4192    7.2508   -1.0527 H   0  0  0  0  0  0
   -2.9278    5.7082   -0.2971 H   0  0  0  0  0  0
   -1.2226    4.4464   -1.7635 H   0  0  0  0  0  0
   -0.5660    6.0324   -2.2630 H   0  0  0  0  0  0
    0.7048    5.0839   -0.4831 H   0  0  0  0  0  0
   -0.2005    6.3951    0.3277 H   0  0  0  0  0  0
   -1.4326    3.2280    0.5926 H   0  0  0  0  0  0
  1  2  1  0  0  0
  2  3  1  0  0  0
  3  4  1  0  0  0
  1  5  1  0  0  0
  1  6  1  0  0  0
  1  7  1  0  0  0
  2  8  1  0  0  0
  2  9  1  0  0  0
  3 10  1  0  0  0
  3 11  1  0  0  0
  4 12  1  0  0  0
 13 14  1  0  0  0
 14 15  1  0  0  0
 15 16  1  0  0  0
 13 17  1  0  0  0
 13 18  1  0  0  0
 13 19  1  0  0  0
 14 20  1  0  0  0
 14 21  1  0  0  0
 15 22  1  0  0  0
 15 23  1  0  0  0
 16 24  1  0  0  0
M  END
$$$$
