


 24 22  0  0  1  0            999 V2000
    7.3698    0.3173   11.0282 C   0  0  0  0  0  0
    5.9351    0.6446   11.5818 C   0  0  0  0  0  0
    5.5512   -0.0834   12.8780 C   0  0  0  0  0  0
    4.4828   -1.5262   12.5496 S   0  0  0  0  0  0
    7.6412    0.9055   10.1355 H   0  0  0  0  0  0
    7.3916   -0.7534   10.7641 H   0  0  0  0  0  0
    8.1225    0.5015   11.8131 H   0  0  0  0  0  0
    5.9754    1.7365   11.7592 H   0  0  0  0  0  0
    5.1403    0.4540   10.8352 H   0  0  0  0  0  0
    6.4680   -0.4422   13.3842 H   0  0  0  0  0  0
    5.0462    0.6270   13.5603 H   0  0  0  0  0  0
    3.7665   -0.8644   11.6160 H   0  0  0  0  0  0
    1.8613    0.9284   17.1326 C   0  0  0  0  0  0
    2.7674   -0.2601   17.4556 C   0  0  0  0  0  0
    3.8202   -0.4244   16.3514 C   0  0  0  0  0  0
    5.2472   -1.2972   17.0935 S   0  0  0  0  0  0
    1.1212    1.0871   17.9350 H   0  0  0  0  0  0
    1.3245    0.6630   16.2064 H   0  0  0  0  0  0
    2.4064    1.8726   16.9651 H   0  0  0  0  0  0
    3.2096   -0.0127   18.4399 H   0  0  0  0  0  0
    2.2638   -1.2414   17.5500 H   0  0  0  0  0  0
    3.5962   -0.9621   15.4101 H   0  0  0  0  0  0
    4.1066    0.6118   16.0872 H   0  0  0  0  0  0
    4.6018   -2.0229   18.0312 H   0  0  0  0  0  0
  1  2  1  0  0  0
  2  3  1  0  0  0
  3  4  1  0  0  0
  1  5  1  0  0  0
  1  6  1  0  0  0
  1  7  1  0  0  0
  2  8  1  0  0  0
  2  9  1  0  0  0
  3 10  1  0  0  0
  3 11  1  0  0  0
  4 12  1  0  0  0
 13 14  1  0  0  0
 14 15  1  0  0  0
 15 16  1  0  0  0
 13 17  1  0  0  0
 13 18  1  0  0  0
 13 19  1  0  0  0
 14 20  1  0  0  0
 14 21  1  0  0  0
 15 22  1  0  0  0
 15 23  1  0  0  0
 16 24  1  0  0  0
M  END
$$$$
