


 24 22  0  0  1  0            999 V2000
    7.4898   10.0050   -4.7620 C   0  0  0  0  0  0
    7.7560    8.5523   -4.3271 C   0  0  0  0  0  0
    8.9315    8.5215   -3.2854 C   0  0  0  0  0  0
    9.3185    6.8345   -2.7417 S   0  0  0  0  0  0
    8.3628   10.6106   -5.0584 H   0  0  0  0  0  0
    7.0926   10.4016   -3.8124 H   0  0  0  0  0  0
    6.7122   10.1054   -5.5378 H   0  0  0  0  0  0
    6.8702    8.2092   -3.7586 H   0  0  0  0  0  0
    7.8870    7.8709   -5.1896 H   0  0  0  0  0  0
    9.8229    8.6859   -3.9208 H   0  0  0  0  0  0
    8.8911    9.3420   -2.5434 H   0  0  0  0  0  0
    9.3273    6.2162   -3.9418 H   0  0  0  0  0  0
   10.5124   14.0902   -1.7943 C   0  0  0  0  0  0
   10.6366   13.0812   -2.9155 C   0  0  0  0  0  0
   10.1400   11.6321   -2.6721 C   0  0  0  0  0  0
   10.7638   10.6056   -4.0935 S   0  0  0  0  0  0
   11.2155   13.9360   -0.9585 H   0  0  0  0  0  0
    9.4843   14.0834   -1.3949 H   0  0  0  0  0  0
   10.7094   15.0788   -2.2419 H   0  0  0  0  0  0
   10.0307   13.3555   -3.8004 H   0  0  0  0  0  0
   11.6956   13.0338   -3.2343 H   0  0  0  0  0  0
   10.4436   11.1922   -1.7027 H   0  0  0  0  0  0
    9.0337   11.6625   -2.6962 H   0  0  0  0  0  0
   11.9668   11.2095   -4.1955 H   0  0  0  0  0  0
  1  2  1  0  0  0
  2  3  1  0  0  0
  3  4  1  0  0  0
  1  5  1  0  0  0
  1  6  1  0  0  0
  1  7  1  0  0  0
  2  8  1  0  0  0
  2  9  1  0  0  0
  3 10  1  0  0  0
  3 11  1  0  0  0
  4 12  1  0  0  0
 13 14  1  0  0  0
 14 15  1  0  0  0
 15 16  1  0  0  0
 13 17  1  0  0  0
 13 18  1  0  0  0
 13 19  1  0  0  0
 14 20  1  0  0  0
 14 21  1  0  0  0
 15 22  1  0  0  0
 15 23  1  0  0  0
 16 24  1  0  0  0
M  END
$$$$
