


 20 20  0  0  1  0            999 V2000
   -3.1583    4.1220   -0.1191 C   0  0  0  0  0  0
   -4.1221    3.9737   -1.0896 C   0  0  0  0  0  0
   -3.7622    3.6612   -2.4111 C   0  0  0  0  0  0
   -2.4621    3.2945   -2.5981 N   0  0  0  0  0  0
   -1.6312    3.2264   -1.6014 C   0  0  0  0  0  0
   -1.8978    3.7018   -0.3793 N   0  0  0  0  0  0
   -3.3853    4.0946    0.9549 H   0  0  0  0  0  0
   -5.1879    4.0994   -0.8573 H   0  0  0  0  0  0
   -4.4988    3.5600   -3.2191 H   0  0  0  0  0  0
   -0.5878    3.1033   -1.9206 H   0  0  0  0  0  0
    2.7477   -6.2684   -1.2572 C   0  0  0  0  0  0
    4.0647   -5.7707   -1.2822 C   0  0  0  0  0  0
    4.4543   -5.1639   -0.0735 C   0  0  0  0  0  0
    3.5699   -4.9053    0.9050 N   0  0  0  0  0  0
    2.3443   -5.2793    0.7009 C   0  0  0  0  0  0
    1.8913   -6.0566   -0.2413 N   0  0  0  0  0  0
    2.3467   -6.9355   -2.0315 H   0  0  0  0  0  0
    4.6802   -6.0871   -2.1346 H   0  0  0  0  0  0
    5.4628   -4.7847    0.1378 H   0  0  0  0  0  0
    1.7005   -5.1984    1.5867 H   0  0  0  0  0  0
  1  2  2  0  0  0
  2  3  1  0  0  0
  3  4  2  0  0  0
  4  5  1  0  0  0
  5  6  2  0  0  0
  1  6  1  0  0  0
  1  7  1  0  0  0
  2  8  1  0  0  0
  3  9  1  0  0  0
  5 10  1  0  0  0
 11 12  2  0  0  0
 12 13  1  0  0  0
 13 14  2  0  0  0
 14 15  1  0  0  0
 15 16  2  0  0  0
 11 16  1  0  0  0
 11 17  1  0  0  0
 12 18  1  0  0  0
 13 19  1  0  0  0
 15 20  1  0  0  0
M  END
$$$$
