


 20 20  0  0  1  0            999 V2000
   10.8898   -2.0801   -8.7703 C   0  0  0  0  0  0
    9.8216   -2.2720   -9.6357 C   0  0  0  0  0  0
    9.1499   -3.5244   -9.5855 C   0  0  0  0  0  0
    9.5489   -4.4826   -8.8073 N   0  0  0  0  0  0
   10.5728   -4.2653   -8.0245 C   0  0  0  0  0  0
   11.2490   -3.0962   -7.9183 N   0  0  0  0  0  0
   11.5330   -1.1917   -8.8236 H   0  0  0  0  0  0
    9.6048   -1.5046  -10.3905 H   0  0  0  0  0  0
    8.3125   -3.7470  -10.2599 H   0  0  0  0  0  0
   10.9081   -5.1791   -7.5163 H   0  0  0  0  0  0
   11.2034    2.8119  -10.7566 C   0  0  0  0  0  0
   10.7757    1.4921  -10.6861 C   0  0  0  0  0  0
   11.2209    0.5500  -11.7002 C   0  0  0  0  0  0
   12.0712    0.9477  -12.6063 N   0  0  0  0  0  0
   12.3309    2.2666  -12.6568 C   0  0  0  0  0  0
   11.9665    3.2073  -11.7851 N   0  0  0  0  0  0
   10.8044    3.6409  -10.1573 H   0  0  0  0  0  0
   10.1123    1.1679   -9.8734 H   0  0  0  0  0  0
   10.7840   -0.4564  -11.6555 H   0  0  0  0  0  0
   12.9363    2.5694  -13.5214 H   0  0  0  0  0  0
  1  2  2  0  0  0
  2  3  1  0  0  0
  3  4  2  0  0  0
  4  5  1  0  0  0
  5  6  2  0  0  0
  1  6  1  0  0  0
  1  7  1  0  0  0
  2  8  1  0  0  0
  3  9  1  0  0  0
  5 10  1  0  0  0
 11 12  2  0  0  0
 12 13  1  0  0  0
 13 14  2  0  0  0
 14 15  1  0  0  0
 15 16  2  0  0  0
 11 16  1  0  0  0
 11 17  1  0  0  0
 12 18  1  0  0  0
 13 19  1  0  0  0
 15 20  1  0  0  0
M  END
$$$$
