


 20 20  0  0  1  0            999 V2000
    0.4179    1.3880    3.1429 C   0  0  0  0  0  0
    0.1313    2.4371    2.2768 C   0  0  0  0  0  0
    0.9697    3.5450    2.3282 C   0  0  0  0  0  0
    2.0107    3.6122    3.1695 N   0  0  0  0  0  0
    2.1918    2.5447    3.9572 C   0  0  0  0  0  0
    1.4523    1.4291    3.9941 N   0  0  0  0  0  0
   -0.1969    0.4785    3.1629 H   0  0  0  0  0  0
   -0.7189    2.3927    1.5834 H   0  0  0  0  0  0
    0.8098    4.4140    1.6764 H   0  0  0  0  0  0
    3.0421    2.5891    4.6506 H   0  0  0  0  0  0
    3.0306    2.0814   -0.1503 C   0  0  0  0  0  0
    3.3189    1.0294    0.7119 C   0  0  0  0  0  0
    2.4772   -0.0760    0.6622 C   0  0  0  0  0  0
    1.4316   -0.1385   -0.1737 N   0  0  0  0  0  0
    1.2493    0.9314   -0.9580 C   0  0  0  0  0  0
    1.9917    2.0451   -0.9961 N   0  0  0  0  0  0
    3.6478    2.9893   -0.1713 H   0  0  0  0  0  0
    4.1728    1.0699    1.4009 H   0  0  0  0  0  0
    2.6381   -0.9470    1.3111 H   0  0  0  0  0  0
    0.3953    0.8910   -1.6470 H   0  0  0  0  0  0
  1  2  2  0  0  0
  2  3  1  0  0  0
  3  4  2  0  0  0
  4  5  1  0  0  0
  5  6  2  0  0  0
  1  6  1  0  0  0
  1  7  1  0  0  0
  2  8  1  0  0  0
  3  9  1  0  0  0
  5 10  1  0  0  0
 11 12  2  0  0  0
 12 13  1  0  0  0
 13 14  2  0  0  0
 14 15  1  0  0  0
 15 16  2  0  0  0
 11 16  1  0  0  0
 11 17  1  0  0  0
 12 18  1  0  0  0
 13 19  1  0  0  0
 15 20  1  0  0  0
M  END
$$$$
