


 20 20  0  0  1  0            999 V2000
    1.2032   -4.9912   -1.5361 C   0  0  0  0  0  0
    2.3178   -4.2681   -1.1388 C   0  0  0  0  0  0
    2.4230   -2.9619   -1.5249 C   0  0  0  0  0  0
    1.4176   -2.3582   -2.2249 N   0  0  0  0  0  0
    0.3721   -3.0813   -2.5512 C   0  0  0  0  0  0
    0.2040   -4.3678   -2.2955 N   0  0  0  0  0  0
    1.2063   -6.0726   -1.3462 H   0  0  0  0  0  0
    3.2284   -4.6196   -0.6359 H   0  0  0  0  0  0
    3.2330   -2.2662   -1.2692 H   0  0  0  0  0  0
   -0.4461   -2.4853   -2.9765 H   0  0  0  0  0  0
    1.6938    3.3742   -3.5831 C   0  0  0  0  0  0
    1.0779    2.1405   -3.4678 C   0  0  0  0  0  0
    1.8265    1.0298   -3.3519 C   0  0  0  0  0  0
    3.1608    1.1454   -3.5392 N   0  0  0  0  0  0
    3.6885    2.3438   -3.8036 C   0  0  0  0  0  0
    3.0196    3.4486   -3.7915 N   0  0  0  0  0  0
    1.1738    4.3402   -3.6279 H   0  0  0  0  0  0
    0.0196    2.0326   -3.1960 H   0  0  0  0  0  0
    1.2909    0.0895   -3.1658 H   0  0  0  0  0  0
    4.7822    2.3712   -3.8973 H   0  0  0  0  0  0
  1  2  2  0  0  0
  2  3  1  0  0  0
  3  4  2  0  0  0
  4  5  1  0  0  0
  5  6  2  0  0  0
  1  6  1  0  0  0
  1  7  1  0  0  0
  2  8  1  0  0  0
  3  9  1  0  0  0
  5 10  1  0  0  0
 11 12  2  0  0  0
 12 13  1  0  0  0
 13 14  2  0  0  0
 14 15  1  0  0  0
 15 16  2  0  0  0
 11 16  1  0  0  0
 11 17  1  0  0  0
 12 18  1  0  0  0
 13 19  1  0  0  0
 15 20  1  0  0  0
M  END
$$$$
