


 14 12  0  0  1  0            999 V2000
   -2.1442    1.7709   -2.9172 O   0  0  0  0  0  0
   -1.5318    1.1727   -3.4023 H   0  0  0  0  0  0
   -3.0409    1.4093   -3.1003 H   0  0  0  0  0  0
    0.0000    0.0000    0.0000 O   0  0  0  0  0  0
   -0.5931   -0.6221   -0.9280 C   0  0  0  0  0  0
   -0.0820   -1.4421   -1.8141 O   0  0  0  0  0  0
   -0.9862   -2.1121   -2.6527 C   0  0  0  0  0  0
   -0.1575   -2.7678   -3.7954 C   0  0  0  0  0  0
   -0.4944   -2.7774   -4.9519 O   0  0  0  0  0  0
    0.8677   -3.5178   -3.3069 O   0  0  0  0  0  0
   -1.6959   -0.5469   -1.0054 H   0  0  0  0  0  0
   -1.5327   -2.8768   -2.0679 H   0  0  0  0  0  0
   -1.7364   -1.4921   -3.1802 H   0  0  0  0  0  0
    0.9708   -3.3707   -2.3272 H   0  0  0  0  0  0
  1  2  1  0  0  0
  1  3  1  0  0  0
  4  5  2  0  0  0
  5  6  1  0  0  0
  6  7  1  0  0  0
  7  8  1  0  0  0
  8  9  2  0  0  0
  8 10  1  0  0  0
  5 11  1  0  0  0
  7 12  1  0  0  0
  7 13  1  0  0  0
 10 14  1  0  0  0
M  END
$$$$
