


 19 17  0  0  1  0            999 V2000
    1.1175    3.1177    3.5504 C   0  0  0  0  0  0
    1.0163    2.2207    2.3410 C   0  0  0  0  0  0
    0.5931    2.5541    1.2639 O   0  0  0  0  0  0
    1.4501    0.9389    2.5296 O   0  0  0  0  0  0
    2.1653    3.2030    3.8844 H   0  0  0  0  0  0
    0.5144    2.7175    4.3827 H   0  0  0  0  0  0
    0.7454    4.1251    3.2989 H   0  0  0  0  0  0
    1.7642    0.8349    3.4691 H   0  0  0  0  0  0
    2.8367    0.7025   -0.5973 C   0  0  0  0  0  0
    1.4766    0.0137   -0.5427 C   0  0  0  0  0  0
    0.3816    1.0283   -0.6090 N   0  0  0  0  0  0
    0.4451    1.5731   -1.4925 H   0  0  0  0  0  0
   -0.5525    0.5725   -0.5727 H   0  0  0  0  0  0
    0.4528    1.6912    0.1893 H   0  0  0  0  0  0
    2.9565    1.2698   -1.5356 H   0  0  0  0  0  0
    3.6271   -0.0652   -0.5470 H   0  0  0  0  0  0
    2.9646    1.3952    0.2514 H   0  0  0  0  0  0
    1.3408   -0.6869   -1.3890 H   0  0  0  0  0  0
    1.3490   -0.5617    0.3943 H   0  0  0  0  0  0
  1  2  1  0  0  0
  2  3  2  0  0  0
  2  4  1  0  0  0
  1  5  1  0  0  0
  1  6  1  0  0  0
  1  7  1  0  0  0
  4  8  1  0  0  0
  9 10  1  0  0  0
 10 11  1  0  0  0
 11 12  1  0  0  0
 11 13  1  0  0  0
 11 14  1  0  0  0
  9 15  1  0  0  0
  9 16  1  0  0  0
  9 17  1  0  0  0
 10 18  1  0  0  0
 10 19  1  0  0  0
M  CHG  1  11   1
M  END
$$$$
