


 20 18  0  0  1  0            999 V2000
    1.6256    1.8206    3.7947 C   0  0  0  0  0  0
    2.8138    2.7598    3.6694 C   0  0  0  0  0  0
    3.1879    3.2521    1.9607 S   0  0  0  0  0  0
    3.8750    1.5051    1.1394 S   0  0  0  0  0  0
    0.7208    2.2812    3.3636 H   0  0  0  0  0  0
    1.4323    1.5918    4.8562 H   0  0  0  0  0  0
    1.8273    0.8759    3.2622 H   0  0  0  0  0  0
    2.6198    3.7237    4.1781 H   0  0  0  0  0  0
    3.7299    2.3239    4.1123 H   0  0  0  0  0  0
    2.6999    0.9952    0.7133 H   0  0  0  0  0  0
    1.3063    2.8174   -1.2309 C   0  0  0  0  0  0
    0.3287    1.7911   -0.1115 S   0  0  0  0  0  0
   -0.5998    3.1859    1.0492 S   0  0  0  0  0  0
   -2.0447    3.6098    0.0522 C   0  0  0  0  0  0
    1.8824    2.1391   -1.8825 H   0  0  0  0  0  0
    2.0132    3.4576   -0.6768 H   0  0  0  0  0  0
    0.6723    3.4599   -1.8648 H   0  0  0  0  0  0
   -1.7640    4.0632   -0.9133 H   0  0  0  0  0  0
   -2.6727    2.7245   -0.1443 H   0  0  0  0  0  0
   -2.6382    4.3419    0.6253 H   0  0  0  0  0  0
  1  2  1  0  0  0
  2  3  1  0  0  0
  3  4  1  0  0  0
  1  5  1  0  0  0
  1  6  1  0  0  0
  1  7  1  0  0  0
  2  8  1  0  0  0
  2  9  1  0  0  0
  4 10  1  0  0  0
 11 12  1  0  0  0
 12 13  1  0  0  0
 13 14  1  0  0  0
 11 15  1  0  0  0
 11 16  1  0  0  0
 11 17  1  0  0  0
 14 18  1  0  0  0
 14 19  1  0  0  0
 14 20  1  0  0  0
M  END
$$$$
