


  8  6  0  0  1  0            999 V2000
   -2.7972   -3.4726   -5.1292 N   0  0  0  0  0  0
   -3.2164   -3.3414   -4.2031 H   0  0  0  0  0  0
   -2.7578   -2.5491   -5.5721 H   0  0  0  0  0  0
   -1.8287   -3.7722   -4.9781 H   0  0  0  0  0  0
   -5.4163   -6.1032   -6.3105 N   0  0  0  0  0  0
   -6.2276   -5.8686   -5.7295 H   0  0  0  0  0  0
   -5.7373   -6.1043   -7.2839 H   0  0  0  0  0  0
   -4.7496   -5.3303   -6.2174 H   0  0  0  0  0  0
  1  2  1  0  0  0
  1  3  1  0  0  0
  1  4  1  0  0  0
  5  6  1  0  0  0
  5  7  1  0  0  0
  5  8  1  0  0  0
M  END
$$$$
