


  8  6  0  0  1  0            999 V2000
    0.2219    4.1015   -2.4940 N   0  0  0  0  0  0
    0.0118    3.8183   -3.4564 H   0  0  0  0  0  0
    0.0187    5.1040   -2.4273 H   0  0  0  0  0  0
   -0.4504    3.6203   -1.8882 H   0  0  0  0  0  0
   -1.7384    5.3559   -0.2553 N   0  0  0  0  0  0
   -1.0295    6.0951   -0.2138 H   0  0  0  0  0  0
   -1.7857    5.0427   -1.2301 H   0  0  0  0  0  0
   -1.3798    4.5681    0.2937 H   0  0  0  0  0  0
  1  2  1  0  0  0
  1  3  1  0  0  0
  1  4  1  0  0  0
  5  6  1  0  0  0
  5  7  1  0  0  0
  5  8  1  0  0  0
M  END
$$$$
