


  8  6  0  0  1  0            999 V2000
    0.8260    1.7708    8.3689 N   0  0  0  0  0  0
    1.3318    1.3762    7.5695 H   0  0  0  0  0  0
    0.3380    2.6061    8.0299 H   0  0  0  0  0  0
    0.1055    1.0906    8.6310 H   0  0  0  0  0  0
   -2.6714   -0.7208    9.4237 N   0  0  0  0  0  0
   -3.0396   -1.0529    8.5266 H   0  0  0  0  0  0
   -3.3939   -0.1249    9.8402 H   0  0  0  0  0  0
   -2.5769   -1.5422   10.0295 H   0  0  0  0  0  0
  1  2  1  0  0  0
  1  3  1  0  0  0
  1  4  1  0  0  0
  5  6  1  0  0  0
  5  7  1  0  0  0
  5  8  1  0  0  0
M  END
$$$$
