


  8  6  0  0  1  0            999 V2000
   -2.6301   -4.7254   -0.0188 N   0  0  0  0  0  0
   -2.7248   -5.2208   -0.9111 H   0  0  0  0  0  0
   -1.7928   -4.1387   -0.0912 H   0  0  0  0  0  0
   -3.4323   -4.0919    0.0570 H   0  0  0  0  0  0
   -3.3405   -0.3031   -4.6454 N   0  0  0  0  0  0
   -3.4778    0.5952   -4.1712 H   0  0  0  0  0  0
   -3.8151   -1.0142   -4.0800 H   0  0  0  0  0  0
   -3.8418   -0.2485   -5.5378 H   0  0  0  0  0  0
  1  2  1  0  0  0
  1  3  1  0  0  0
  1  4  1  0  0  0
  5  6  1  0  0  0
  5  7  1  0  0  0
  5  8  1  0  0  0
M  END
$$$$
