


  8  6  0  0  1  0            999 V2000
    7.6193   -5.5655   -1.6697 N   0  0  0  0  0  0
    8.1385   -6.3340   -2.1061 H   0  0  0  0  0  0
    8.2917   -5.0317   -1.1098 H   0  0  0  0  0  0
    7.3065   -4.9494   -2.4269 H   0  0  0  0  0  0
    9.3877   -1.5641   -1.2902 N   0  0  0  0  0  0
   10.3174   -1.1564   -1.4320 H   0  0  0  0  0  0
    8.9516   -1.6404   -2.2146 H   0  0  0  0  0  0
    9.5305   -2.5198   -0.9482 H   0  0  0  0  0  0
  1  2  1  0  0  0
  1  3  1  0  0  0
  1  4  1  0  0  0
  5  6  1  0  0  0
  5  7  1  0  0  0
  5  8  1  0  0  0
M  END
$$$$
