


  8  6  0  0  1  0            999 V2000
   -1.4586    2.8115   -0.0866 N   0  0  0  0  0  0
   -0.7646    3.4470    0.3198 H   0  0  0  0  0  0
   -0.9398    2.0373   -0.5133 H   0  0  0  0  0  0
   -1.9943    2.4172    0.6933 H   0  0  0  0  0  0
    3.4305   -0.4549   -0.0307 N   0  0  0  0  0  0
    3.6505    0.4759    0.3378 H   0  0  0  0  0  0
    2.7222   -0.3267   -0.7605 H   0  0  0  0  0  0
    4.2771   -0.7995   -0.4944 H   0  0  0  0  0  0
  1  2  1  0  0  0
  1  3  1  0  0  0
  1  4  1  0  0  0
  5  6  1  0  0  0
  5  7  1  0  0  0
  5  8  1  0  0  0
M  END
$$$$
