


  8  6  0  0  1  0            999 V2000
    0.8260    1.7708    8.3689 N   0  0  0  0  0  0
    1.3318    1.3762    7.5695 H   0  0  0  0  0  0
    0.3380    2.6061    8.0299 H   0  0  0  0  0  0
    0.1055    1.0906    8.6310 H   0  0  0  0  0  0
   -1.5547    0.0539    9.0877 N   0  0  0  0  0  0
   -1.9230   -0.2782    8.1906 H   0  0  0  0  0  0
   -2.2773    0.6498    9.5041 H   0  0  0  0  0  0
   -1.4602   -0.7675    9.6935 H   0  0  0  0  0  0
  1  2  1  0  0  0
  1  3  1  0  0  0
  1  4  1  0  0  0
  5  6  1  0  0  0
  5  7  1  0  0  0
  5  8  1  0  0  0
M  END
$$$$
