


  8  6  0  0  1  0            999 V2000
    0.0000    0.0000    0.0000 N   0  0  0  0  0  0
   -0.8142   -0.0022   -0.6227 H   0  0  0  0  0  0
   -0.0931    0.8189    0.6094 H   0  0  0  0  0  0
   -0.0808   -0.8278    0.5990 H   0  0  0  0  0  0
    1.4304   -2.1326    0.4778 N   0  0  0  0  0  0
    1.3508   -1.1114    0.4386 H   0  0  0  0  0  0
    2.4258   -2.3498    0.5895 H   0  0  0  0  0  0
    0.9611   -2.4352    1.3374 H   0  0  0  0  0  0
  1  2  1  0  0  0
  1  3  1  0  0  0
  1  4  1  0  0  0
  5  6  1  0  0  0
  5  7  1  0  0  0
  5  8  1  0  0  0
M  END
$$$$
