


  8  6  0  0  1  0            999 V2000
    5.7301   -0.2378    1.3243 N   0  0  0  0  0  0
    4.7929   -0.5630    1.0662 H   0  0  0  0  0  0
    6.3904   -0.6974    0.6892 H   0  0  0  0  0  0
    5.7653    0.7652    1.1162 H   0  0  0  0  0  0
    3.9664   -2.9459    3.1531 N   0  0  0  0  0  0
    4.4698   -2.1154    3.4810 H   0  0  0  0  0  0
    2.9674   -2.7629    3.2921 H   0  0  0  0  0  0
    4.1202   -3.0075    2.1416 H   0  0  0  0  0  0
  1  2  1  0  0  0
  1  3  1  0  0  0
  1  4  1  0  0  0
  5  6  1  0  0  0
  5  7  1  0  0  0
  5  8  1  0  0  0
M  END
$$$$
