


  8  6  0  0  1  0            999 V2000
   -1.8774    2.1167   -3.1593 N   0  0  0  0  0  0
   -1.6138    2.4536   -4.0908 H   0  0  0  0  0  0
   -1.4296    1.2031   -3.0351 H   0  0  0  0  0  0
   -1.4488    2.7534   -2.4799 H   0  0  0  0  0  0
    1.0924    4.4577   -1.4712 N   0  0  0  0  0  0
    1.5696    4.5267   -0.5667 H   0  0  0  0  0  0
    0.5122    3.6134   -1.4384 H   0  0  0  0  0  0
    0.4529    5.2565   -1.5324 H   0  0  0  0  0  0
  1  2  1  0  0  0
  1  3  1  0  0  0
  1  4  1  0  0  0
  5  6  1  0  0  0
  5  7  1  0  0  0
  5  8  1  0  0  0
M  END
$$$$
