


  8  6  0  0  1  0            999 V2000
    6.2896    6.6551   -1.9808 N   0  0  0  0  0  0
    5.8918    7.2471   -2.7170 H   0  0  0  0  0  0
    6.2881    7.2100   -1.1190 H   0  0  0  0  0  0
    5.6359    5.8790   -1.8367 H   0  0  0  0  0  0
    5.4955    5.6106   -0.1596 N   0  0  0  0  0  0
    5.4427    5.8043    0.8455 H   0  0  0  0  0  0
    4.8410    6.2503   -0.6212 H   0  0  0  0  0  0
    6.4372    5.8762   -0.4652 H   0  0  0  0  0  0
  1  2  1  0  0  0
  1  3  1  0  0  0
  1  4  1  0  0  0
  5  6  1  0  0  0
  5  7  1  0  0  0
  5  8  1  0  0  0
M  END
$$$$
