


  8  6  0  0  1  0            999 V2000
   -2.7011   -2.3725   -0.6050 N   0  0  0  0  0  0
   -2.6222   -2.5944    0.3926 H   0  0  0  0  0  0
   -2.5858   -1.3580   -0.6946 H   0  0  0  0  0  0
   -1.8977   -2.8061   -1.0711 H   0  0  0  0  0  0
    0.8023   -2.0652   -5.3721 N   0  0  0  0  0  0
    1.4717   -1.8938   -4.6150 H   0  0  0  0  0  0
    0.4568   -1.1498   -5.6773 H   0  0  0  0  0  0
    1.3330   -2.4597   -6.1554 H   0  0  0  0  0  0
  1  2  1  0  0  0
  1  3  1  0  0  0
  1  4  1  0  0  0
  5  6  1  0  0  0
  5  7  1  0  0  0
  5  8  1  0  0  0
M  END
$$$$
