


  8  6  0  0  1  0            999 V2000
   -3.0852    1.0055    1.7355 N   0  0  0  0  0  0
   -3.2294    0.3983    0.9224 H   0  0  0  0  0  0
   -3.1308    1.9720    1.3975 H   0  0  0  0  0  0
   -3.8895    0.8686    2.3560 H   0  0  0  0  0  0
    0.0715    2.7312   -3.0701 N   0  0  0  0  0  0
   -0.6192    3.2669   -3.6054 H   0  0  0  0  0  0
    0.1409    3.1726   -2.1475 H   0  0  0  0  0  0
   -0.3240    1.7969   -2.9244 H   0  0  0  0  0  0
  1  2  1  0  0  0
  1  3  1  0  0  0
  1  4  1  0  0  0
  5  6  1  0  0  0
  5  7  1  0  0  0
  5  8  1  0  0  0
M  END
$$$$
