


  8  6  0  0  1  0            999 V2000
    2.5256    4.4802    0.6942 N   0  0  0  0  0  0
    3.4088    3.9601    0.6976 H   0  0  0  0  0  0
    2.4803    4.9965    1.5785 H   0  0  0  0  0  0
    2.5930    5.1771   -0.0545 H   0  0  0  0  0  0
   -0.4666    1.1229   -3.1751 N   0  0  0  0  0  0
   -0.8321    0.3469   -2.6141 H   0  0  0  0  0  0
    0.2312    1.6044   -2.5990 H   0  0  0  0  0  0
    0.0355    0.7079   -3.9665 H   0  0  0  0  0  0
  1  2  1  0  0  0
  1  3  1  0  0  0
  1  4  1  0  0  0
  5  6  1  0  0  0
  5  7  1  0  0  0
  5  8  1  0  0  0
M  END
$$$$
