


  8  6  0  0  1  0            999 V2000
    0.2597   -4.6774   -3.7608 N   0  0  0  0  0  0
   -0.7531   -4.5563   -3.8619 H   0  0  0  0  0  0
    0.6539   -4.6924   -4.7069 H   0  0  0  0  0  0
    0.6166   -3.8328   -3.3026 H   0  0  0  0  0  0
   -0.7769    5.2001    2.5971 N   0  0  0  0  0  0
    0.2348    5.3627    2.6218 H   0  0  0  0  0  0
   -0.9195    4.1914    2.7106 H   0  0  0  0  0  0
   -1.1717    5.6522    3.4280 H   0  0  0  0  0  0
  1  2  1  0  0  0
  1  3  1  0  0  0
  1  4  1  0  0  0
  5  6  1  0  0  0
  5  7  1  0  0  0
  5  8  1  0  0  0
M  END
$$$$
