


  8  6  0  0  1  0            999 V2000
   -7.7807    3.7942   -3.8923 N   0  0  0  0  0  0
   -7.0957    4.5516   -3.8045 H   0  0  0  0  0  0
   -8.1076    3.7992   -4.8637 H   0  0  0  0  0  0
   -7.2724    2.9151   -3.7534 H   0  0  0  0  0  0
  -10.8457    3.7063   -2.6746 N   0  0  0  0  0  0
   -9.9638    4.2272   -2.6359 H   0  0  0  0  0  0
  -10.7289    2.9748   -3.3830 H   0  0  0  0  0  0
  -10.9519    3.2326   -1.7718 H   0  0  0  0  0  0
  1  2  1  0  0  0
  1  3  1  0  0  0
  1  4  1  0  0  0
  5  6  1  0  0  0
  5  7  1  0  0  0
  5  8  1  0  0  0
M  END
$$$$
