


  8  6  0  0  1  0            999 V2000
    0.5779   -3.2590   -0.6171 N   0  0  0  0  0  0
    0.0102   -3.2805   -1.4703 H   0  0  0  0  0  0
    0.2634   -4.0382   -0.0302 H   0  0  0  0  0  0
    1.5424   -3.4660   -0.8957 H   0  0  0  0  0  0
   -0.8920   -2.9653   -3.5782 N   0  0  0  0  0  0
   -1.4515   -3.3460   -4.3481 H   0  0  0  0  0  0
   -0.8902   -1.9461   -3.6869 H   0  0  0  0  0  0
   -1.3985   -3.1716   -2.7114 H   0  0  0  0  0  0
  1  2  1  0  0  0
  1  3  1  0  0  0
  1  4  1  0  0  0
  5  6  1  0  0  0
  5  7  1  0  0  0
  5  8  1  0  0  0
M  END
$$$$
