


  8  6  0  0  1  0            999 V2000
   -2.6301   -4.7254   -0.0188 N   0  0  0  0  0  0
   -2.7248   -5.2208   -0.9111 H   0  0  0  0  0  0
   -1.7928   -4.1387   -0.0912 H   0  0  0  0  0  0
   -3.4323   -4.0919    0.0570 H   0  0  0  0  0  0
   -1.1688   -4.2902   -2.9810 N   0  0  0  0  0  0
   -2.1580   -4.5555   -2.9414 H   0  0  0  0  0  0
   -1.1190   -3.4002   -3.4871 H   0  0  0  0  0  0
   -0.8719   -4.1024   -2.0181 H   0  0  0  0  0  0
  1  2  1  0  0  0
  1  3  1  0  0  0
  1  4  1  0  0  0
  5  6  1  0  0  0
  5  7  1  0  0  0
  5  8  1  0  0  0
M  END
$$$$
