


  8  6  0  0  1  0            999 V2000
   -2.7011   -2.3725   -0.6050 N   0  0  0  0  0  0
   -2.6222   -2.5944    0.3926 H   0  0  0  0  0  0
   -2.5858   -1.3580   -0.6946 H   0  0  0  0  0  0
   -1.8977   -2.8061   -1.0711 H   0  0  0  0  0  0
   -5.8807   -3.1349   -0.3045 N   0  0  0  0  0  0
   -5.9412   -3.1350    0.7187 H   0  0  0  0  0  0
   -6.4030   -2.3167   -0.6338 H   0  0  0  0  0  0
   -4.8969   -2.9769   -0.5449 H   0  0  0  0  0  0
  1  2  1  0  0  0
  1  3  1  0  0  0
  1  4  1  0  0  0
  5  6  1  0  0  0
  5  7  1  0  0  0
  5  8  1  0  0  0
M  END
$$$$
