


  8  6  0  0  1  0            999 V2000
   -3.0201    7.4945   -2.6524 N   0  0  0  0  0  0
   -2.6447    7.8292   -3.5455 H   0  0  0  0  0  0
   -2.6063    8.0775   -1.9180 H   0  0  0  0  0  0
   -4.0258    7.6926   -2.6589 H   0  0  0  0  0  0
   -1.4948    5.9219   -5.0470 N   0  0  0  0  0  0
   -0.5016    5.8691   -5.2946 H   0  0  0  0  0  0
   -1.9314    5.0563   -5.3801 H   0  0  0  0  0  0
   -1.5479    5.9077   -4.0235 H   0  0  0  0  0  0
  1  2  1  0  0  0
  1  3  1  0  0  0
  1  4  1  0  0  0
  5  6  1  0  0  0
  5  7  1  0  0  0
  5  8  1  0  0  0
M  END
$$$$
