


 24 23  0  0  1  0            999 V2000
    1.7326    2.1059    2.2861 C   0  0  0  0  0  0
    2.9144    1.4633    1.7453 N   0  0  0  0  0  0
    3.3511    0.2718    2.2398 C   0  0  0  0  0  0
    2.7641   -0.2976    3.1552 O   0  0  0  0  0  0
    4.5964   -0.2815    1.5799 C   0  0  0  0  0  0
    1.5585    3.0518    1.7461 H   0  0  0  0  0  0
    1.8614    2.3314    3.3581 H   0  0  0  0  0  0
    0.8440    1.4636    2.1660 H   0  0  0  0  0  0
    3.4311    1.9065    0.9817 H   0  0  0  0  0  0
    5.4466    0.4115    1.6959 H   0  0  0  0  0  0
    4.8576   -1.2417    2.0558 H   0  0  0  0  0  0
    4.4292   -0.4563    0.5037 H   0  0  0  0  0  0
    0.6169    0.0078   -2.5845 Cl  0  0  0  0  0  0
   -0.7323   -0.1646   -1.5110 C   0  0  0  0  0  0
   -1.8355    0.6757   -1.6531 C   0  0  0  0  0  0
   -2.9206    0.5372   -0.7898 C   0  0  0  0  0  0
   -2.8879   -0.4398    0.2040 C   0  0  0  0  0  0
   -1.7847   -1.2801    0.3462 C   0  0  0  0  0  0
   -0.6997   -1.1415   -0.5171 C   0  0  0  0  0  0
   -4.2372   -0.6120    1.2776 Cl  0  0  0  0  0  0
   -1.8438    1.4397   -2.4417 H   0  0  0  0  0  0
   -3.7980    1.1902   -0.8870 H   0  0  0  0  0  0
   -1.7764   -2.0440    1.1348 H   0  0  0  0  0  0
    0.1777   -1.7945   -0.4200 H   0  0  0  0  0  0
  1  2  1  0  0  0
  2  3  1  0  0  0
  3  4  2  0  0  0
  3  5  1  0  0  0
  1  6  1  0  0  0
  1  7  1  0  0  0
  1  8  1  0  0  0
  2  9  1  0  0  0
  5 10  1  0  0  0
  5 11  1  0  0  0
  5 12  1  0  0  0
 13 14  1  0  0  0
 14 15  2  0  0  0
 15 16  1  0  0  0
 16 17  2  0  0  0
 17 18  1  0  0  0
 18 19  2  0  0  0
 14 19  1  0  0  0
 17 20  1  0  0  0
 15 21  1  0  0  0
 16 22  1  0  0  0
 18 23  1  0  0  0
 19 24  1  0  0  0
M  END
$$$$
