


 25 23  0  0  1  0            999 V2000
    3.7265    3.5038    2.9681 C   0  0  0  0  0  0
    2.7152    3.1711    1.8815 C   0  0  0  0  0  0
    3.1291    2.0255    1.1236 O   0  0  0  0  0  0
    1.3552    2.8244    2.4527 C   0  0  0  0  0  0
    3.8296    2.6467    3.6547 H   0  0  0  0  0  0
    3.3949    4.3814    3.5482 H   0  0  0  0  0  0
    4.7145    3.7245    2.5302 H   0  0  0  0  0  0
    2.6116    4.0408    1.2011 H   0  0  0  0  0  0
    4.0221    2.2104    0.7649 H   0  0  0  0  0  0
    0.9460    3.6746    3.0239 H   0  0  0  0  0  0
    0.6491    2.5715    1.6439 H   0  0  0  0  0  0
    1.4424    1.9564    3.1277 H   0  0  0  0  0  0
    1.2040   -2.4687    1.3409 C   0  0  0  0  0  0
    1.1253   -1.2937    0.4788 N   0  0  0  0  0  0
    1.7796   -0.1606    0.7073 C   0  0  0  0  0  0
    1.6554    0.8744   -0.1317 N   0  0  0  0  0  0
    1.0534    0.7955   -0.9551 H   0  0  0  0  0  0
    2.1621    1.7444    0.0499 H   0  0  0  0  0  0
    2.5662   -0.0528    1.7801 N   0  0  0  0  0  0
    0.5626   -3.2568    0.9117 H   0  0  0  0  0  0
    0.8491   -2.2428    2.3605 H   0  0  0  0  0  0
    2.2365   -2.8513    1.4044 H   0  0  0  0  0  0
    0.5311   -1.3420   -0.3526 H   0  0  0  0  0  0
    2.6634   -0.8422    2.4235 H   0  0  0  0  0  0
    3.0718    0.8183    1.9593 H   0  0  0  0  0  0
  1  2  1  0  0  0
  2  3  1  0  0  0
  2  4  1  0  0  0
  1  5  1  0  0  0
  1  6  1  0  0  0
  1  7  1  0  0  0
  2  8  1  0  0  0
  3  9  1  0  0  0
  4 10  1  0  0  0
  4 11  1  0  0  0
  4 12  1  0  0  0
 13 14  1  0  0  0
 14 15  1  0  0  0
 15 16  2  0  0  0
 16 17  1  0  0  0
 16 18  1  0  0  0
 15 19  1  0  0  0
 13 20  1  0  0  0
 13 21  1  0  0  0
 13 22  1  0  0  0
 14 23  1  0  0  0
 19 24  1  0  0  0
 19 25  1  0  0  0
M  CHG  1  16   1
M  END
$$$$
