


 30 28  0  0  1  0            999 V2000
   -8.1522   -6.3630   -4.5038 C   0  0  0  0  0  0
   -7.5136   -7.6666   -3.9898 C   0  0  0  0  0  0
   -7.8919   -8.0058   -2.5771 C   0  0  0  0  0  0
   -7.0051   -8.1281   -1.5640 C   0  0  0  0  0  0
   -7.4133   -8.5275   -0.1393 C   0  0  0  0  0  0
   -7.9713   -5.5260   -3.8087 H   0  0  0  0  0  0
   -9.2403   -6.5261   -4.5824 H   0  0  0  0  0  0
   -7.7655   -6.0842   -5.4984 H   0  0  0  0  0  0
   -7.6522   -8.5479   -4.6451 H   0  0  0  0  0  0
   -6.4275   -7.4623   -3.9257 H   0  0  0  0  0  0
   -8.9445   -8.2046   -2.3362 H   0  0  0  0  0  0
   -5.9535   -7.9458   -1.8220 H   0  0  0  0  0  0
   -6.8666   -9.4463    0.1321 H   0  0  0  0  0  0
   -8.4898   -8.6947    0.0331 H   0  0  0  0  0  0
   -7.0745   -7.7094    0.5183 H   0  0  0  0  0  0
   -8.8831    0.1233   -2.2546 C   0  0  0  0  0  0
   -9.3667   -1.2416   -2.6196 C   0  0  0  0  0  0
   -8.5187   -2.4216   -2.1050 C   0  0  0  0  0  0
   -7.2355   -2.4148   -1.6588 C   0  0  0  0  0  0
   -6.4971   -3.6942   -1.1175 C   0  0  0  0  0  0
   -8.6262    0.1807   -1.1835 H   0  0  0  0  0  0
   -9.6851    0.8511   -2.4635 H   0  0  0  0  0  0
   -7.9937    0.4007   -2.8450 H   0  0  0  0  0  0
  -10.4135   -1.3256   -2.2693 H   0  0  0  0  0  0
   -9.3829   -1.2187   -3.7262 H   0  0  0  0  0  0
   -9.0619   -3.3623   -1.9453 H   0  0  0  0  0  0
   -6.6098   -1.5132   -1.6927 H   0  0  0  0  0  0
   -6.5394   -3.6107   -0.0185 H   0  0  0  0  0  0
   -5.4391   -3.7030   -1.4292 H   0  0  0  0  0  0
   -6.9597   -4.6501   -1.4158 H   0  0  0  0  0  0
  1  2  1  0  0  0
  2  3  1  0  0  0
  3  4  2  0  0  0
  4  5  1  0  0  0
  1  6  1  0  0  0
  1  7  1  0  0  0
  1  8  1  0  0  0
  2  9  1  0  0  0
  2 10  1  0  0  0
  3 11  1  0  0  0
  4 12  1  0  0  0
  5 13  1  0  0  0
  5 14  1  0  0  0
  5 15  1  0  0  0
 16 17  1  0  0  0
 17 18  1  0  0  0
 18 19  2  0  0  0
 19 20  1  0  0  0
 16 21  1  0  0  0
 16 22  1  0  0  0
 16 23  1  0  0  0
 17 24  1  0  0  0
 17 25  1  0  0  0
 18 26  1  0  0  0
 19 27  1  0  0  0
 20 28  1  0  0  0
 20 29  1  0  0  0
 20 30  1  0  0  0
M  END
$$$$
