


 30 28  0  0  1  0            999 V2000
   -4.2653   -3.5436   -4.5233 C   0  0  0  0  0  0
   -2.8721   -3.1714   -3.9436 C   0  0  0  0  0  0
   -2.8215   -1.7627   -3.3300 C   0  0  0  0  0  0
   -2.0706   -0.7699   -3.8191 C   0  0  0  0  0  0
   -2.0160    0.6741   -3.2743 C   0  0  0  0  0  0
   -4.2962   -4.6047   -4.8230 H   0  0  0  0  0  0
   -4.4548   -2.9208   -5.4137 H   0  0  0  0  0  0
   -5.0684   -3.3618   -3.7894 H   0  0  0  0  0  0
   -2.6876   -3.8712   -3.1058 H   0  0  0  0  0  0
   -2.1281   -3.3890   -4.7339 H   0  0  0  0  0  0
   -3.5090   -1.5404   -2.5032 H   0  0  0  0  0  0
   -1.4190   -1.0074   -4.6704 H   0  0  0  0  0  0
   -1.0508    0.7167   -2.7421 H   0  0  0  0  0  0
   -2.8187    0.9494   -2.5698 H   0  0  0  0  0  0
   -1.9987    1.4123   -4.0938 H   0  0  0  0  0  0
   -2.0050    3.3245    4.3138 C   0  0  0  0  0  0
   -3.4649    3.2981    4.6796 C   0  0  0  0  0  0
   -4.2730    4.1215    3.5518 C   0  0  0  0  0  0
   -4.9237    5.2490    3.6789 C   0  0  0  0  0  0
   -5.6895    5.9485    2.5664 C   0  0  0  0  0  0
   -1.7441    3.0780    3.2708 H   0  0  0  0  0  0
   -1.4038    2.6897    4.9862 H   0  0  0  0  0  0
   -1.7456    4.3800    4.5013 H   0  0  0  0  0  0
   -3.8729    2.2721    4.5998 H   0  0  0  0  0  0
   -3.7708    3.7065    5.6620 H   0  0  0  0  0  0
   -4.1764    3.6672    2.5569 H   0  0  0  0  0  0
   -5.1005    5.7397    4.6451 H   0  0  0  0  0  0
   -5.4740    7.0289    2.5131 H   0  0  0  0  0  0
   -6.7745    5.8129    2.7118 H   0  0  0  0  0  0
   -5.4024    5.4848    1.6076 H   0  0  0  0  0  0
  1  2  1  0  0  0
  2  3  1  0  0  0
  3  4  2  0  0  0
  4  5  1  0  0  0
  1  6  1  0  0  0
  1  7  1  0  0  0
  1  8  1  0  0  0
  2  9  1  0  0  0
  2 10  1  0  0  0
  3 11  1  0  0  0
  4 12  1  0  0  0
  5 13  1  0  0  0
  5 14  1  0  0  0
  5 15  1  0  0  0
 16 17  1  0  0  0
 17 18  1  0  0  0
 18 19  2  0  0  0
 19 20  1  0  0  0
 16 21  1  0  0  0
 16 22  1  0  0  0
 16 23  1  0  0  0
 17 24  1  0  0  0
 17 25  1  0  0  0
 18 26  1  0  0  0
 19 27  1  0  0  0
 20 28  1  0  0  0
 20 29  1  0  0  0
 20 30  1  0  0  0
M  END
$$$$
