


 30 28  0  0  1  0            999 V2000
   -5.9603    7.5610  -14.5517 C   0  0  0  0  0  0
   -5.5489    6.6936  -13.3063 C   0  0  0  0  0  0
   -4.4344    5.6163  -13.6588 C   0  0  0  0  0  0
   -4.2256    4.8414  -12.5007 O   0  0  0  0  0  0
   -3.3046    5.4701  -11.5641 C   0  0  0  0  0  0
   -6.0784    6.9863  -15.4857 H   0  0  0  0  0  0
   -5.0835    8.2223  -14.6540 H   0  0  0  0  0  0
   -6.8575    8.1862  -14.4074 H   0  0  0  0  0  0
   -5.1825    7.3546  -12.4975 H   0  0  0  0  0  0
   -6.4345    6.1514  -12.9227 H   0  0  0  0  0  0
   -4.8702    4.8593  -14.3388 H   0  0  0  0  0  0
   -3.5563    6.0594  -14.1668 H   0  0  0  0  0  0
   -2.3953    5.8035  -12.0919 H   0  0  0  0  0  0
   -3.0319    4.6533  -10.8749 H   0  0  0  0  0  0
   -3.6969    6.3139  -10.9718 H   0  0  0  0  0  0
   -0.8900   11.6023  -12.6784 C   0  0  0  0  0  0
    0.1786   12.3529  -11.8192 C   0  0  0  0  0  0
    0.7321   11.4999  -10.6271 C   0  0  0  0  0  0
    1.9753   11.9355  -10.0037 O   0  0  0  0  0  0
    2.6883   10.9691   -9.2757 C   0  0  0  0  0  0
   -0.3700   10.7955  -13.2219 H   0  0  0  0  0  0
   -1.2886   12.3216  -13.4134 H   0  0  0  0  0  0
   -1.7350   11.1635  -12.1216 H   0  0  0  0  0  0
    1.0281   12.4680  -12.5195 H   0  0  0  0  0  0
   -0.1000   13.3620  -11.4593 H   0  0  0  0  0  0
    0.0633   11.3922   -9.7515 H   0  0  0  0  0  0
    0.8711   10.4950  -11.0701 H   0  0  0  0  0  0
    3.3969   11.5097   -8.6260 H   0  0  0  0  0  0
    3.2554   10.2585   -9.9003 H   0  0  0  0  0  0
    1.9914   10.3990   -8.6385 H   0  0  0  0  0  0
  1  2  1  0  0  0
  2  3  1  0  0  0
  3  4  1  0  0  0
  4  5  1  0  0  0
  1  6  1  0  0  0
  1  7  1  0  0  0
  1  8  1  0  0  0
  2  9  1  0  0  0
  2 10  1  0  0  0
  3 11  1  0  0  0
  3 12  1  0  0  0
  5 13  1  0  0  0
  5 14  1  0  0  0
  5 15  1  0  0  0
 16 17  1  0  0  0
 17 18  1  0  0  0
 18 19  1  0  0  0
 19 20  1  0  0  0
 16 21  1  0  0  0
 16 22  1  0  0  0
 16 23  1  0  0  0
 17 24  1  0  0  0
 17 25  1  0  0  0
 18 26  1  0  0  0
 18 27  1  0  0  0
 20 28  1  0  0  0
 20 29  1  0  0  0
 20 30  1  0  0  0
M  END
$$$$
