


 30 28  0  0  1  0            999 V2000
    3.8466  -16.1713    8.3932 C   0  0  0  0  0  0
    3.0184  -15.0678    9.0018 C   0  0  0  0  0  0
    3.1373  -13.8038    8.1905 C   0  0  0  0  0  0
    2.0731  -12.8916    8.5163 O   0  0  0  0  0  0
    2.0731  -11.6720    7.8660 C   0  0  0  0  0  0
    3.9354  -16.1803    7.2938 H   0  0  0  0  0  0
    3.3677  -17.1112    8.7152 H   0  0  0  0  0  0
    4.8595  -16.1257    8.8276 H   0  0  0  0  0  0
    1.9658  -15.4017    8.9238 H   0  0  0  0  0  0
    3.2423  -14.9084   10.0742 H   0  0  0  0  0  0
    4.0939  -13.2797    8.3794 H   0  0  0  0  0  0
    3.1075  -14.0736    7.1173 H   0  0  0  0  0  0
    1.6341  -11.8213    6.8652 H   0  0  0  0  0  0
    3.0433  -11.1599    7.7517 H   0  0  0  0  0  0
    1.4001  -11.0238    8.4522 H   0  0  0  0  0  0
    0.8314   -9.3611    9.5159 C   0  0  0  0  0  0
    1.1132   -9.9656   10.9393 C   0  0  0  0  0  0
    2.5559  -10.4627   11.1470 C   0  0  0  0  0  0
    2.8053  -11.5421   10.2614 O   0  0  0  0  0  0
    4.1504  -12.0384   10.3456 C   0  0  0  0  0  0
    1.6835   -8.7087    9.2612 H   0  0  0  0  0  0
   -0.0877   -8.7515    9.5260 H   0  0  0  0  0  0
    0.7332  -10.1328    8.7340 H   0  0  0  0  0  0
    1.0377   -9.2164   11.7507 H   0  0  0  0  0  0
    0.4074  -10.7860   11.1720 H   0  0  0  0  0  0
    3.2831   -9.6741   10.8735 H   0  0  0  0  0  0
    2.7665  -10.7675   12.1901 H   0  0  0  0  0  0
    4.8468  -11.2781    9.9537 H   0  0  0  0  0  0
    4.2548  -12.9556    9.7419 H   0  0  0  0  0  0
    4.4310  -12.2689   11.3871 H   0  0  0  0  0  0
  1  2  1  0  0  0
  2  3  1  0  0  0
  3  4  1  0  0  0
  4  5  1  0  0  0
  1  6  1  0  0  0
  1  7  1  0  0  0
  1  8  1  0  0  0
  2  9  1  0  0  0
  2 10  1  0  0  0
  3 11  1  0  0  0
  3 12  1  0  0  0
  5 13  1  0  0  0
  5 14  1  0  0  0
  5 15  1  0  0  0
 16 17  1  0  0  0
 17 18  1  0  0  0
 18 19  1  0  0  0
 19 20  1  0  0  0
 16 21  1  0  0  0
 16 22  1  0  0  0
 16 23  1  0  0  0
 17 24  1  0  0  0
 17 25  1  0  0  0
 18 26  1  0  0  0
 18 27  1  0  0  0
 20 28  1  0  0  0
 20 29  1  0  0  0
 20 30  1  0  0  0
M  END
$$$$
