


 30 28  0  0  1  0            999 V2000
   -2.8832    0.9376   -4.4678 C   0  0  0  0  0  0
   -3.6062    2.1423   -5.0608 C   0  0  0  0  0  0
   -3.3046    3.5873   -4.4732 C   0  0  0  0  0  0
   -3.7085    3.5711   -3.1414 O   0  0  0  0  0  0
   -2.7352    3.6291   -2.1148 C   0  0  0  0  0  0
   -3.1096    0.0454   -5.0756 H   0  0  0  0  0  0
   -3.2229    0.7548   -3.4345 H   0  0  0  0  0  0
   -1.7905    1.0882   -4.4574 H   0  0  0  0  0  0
   -3.3947    2.2893   -6.1374 H   0  0  0  0  0  0
   -4.6982    1.9991   -4.9488 H   0  0  0  0  0  0
   -2.2254    3.8320   -4.4444 H   0  0  0  0  0  0
   -3.8264    4.4249   -4.9748 H   0  0  0  0  0  0
   -2.2468    4.6174   -2.1518 H   0  0  0  0  0  0
   -1.9540    2.8522   -2.0641 H   0  0  0  0  0  0
   -3.3470    3.5731   -1.1988 H   0  0  0  0  0  0
    1.4533    3.9497    4.8479 C   0  0  0  0  0  0
    2.6212    3.5934    5.8778 C   0  0  0  0  0  0
    2.1596    2.8030    7.0768 C   0  0  0  0  0  0
    1.0121    3.4276    7.6571 O   0  0  0  0  0  0
    0.8890    3.0403    8.9497 C   0  0  0  0  0  0
    0.7149    4.6402    5.2891 H   0  0  0  0  0  0
    0.9266    3.0427    4.5064 H   0  0  0  0  0  0
    1.9142    4.4391    3.9735 H   0  0  0  0  0  0
    3.4121    3.0345    5.3415 H   0  0  0  0  0  0
    3.0379    4.5796    6.1593 H   0  0  0  0  0  0
    1.9816    1.7302    6.8699 H   0  0  0  0  0  0
    3.0178    2.8737    7.7726 H   0  0  0  0  0  0
    1.6108    3.5069    9.6410 H   0  0  0  0  0  0
    0.9975    1.9446    9.0146 H   0  0  0  0  0  0
   -0.1309    3.3123    9.2698 H   0  0  0  0  0  0
  1  2  1  0  0  0
  2  3  1  0  0  0
  3  4  1  0  0  0
  4  5  1  0  0  0
  1  6  1  0  0  0
  1  7  1  0  0  0
  1  8  1  0  0  0
  2  9  1  0  0  0
  2 10  1  0  0  0
  3 11  1  0  0  0
  3 12  1  0  0  0
  5 13  1  0  0  0
  5 14  1  0  0  0
  5 15  1  0  0  0
 16 17  1  0  0  0
 17 18  1  0  0  0
 18 19  1  0  0  0
 19 20  1  0  0  0
 16 21  1  0  0  0
 16 22  1  0  0  0
 16 23  1  0  0  0
 17 24  1  0  0  0
 17 25  1  0  0  0
 18 26  1  0  0  0
 18 27  1  0  0  0
 20 28  1  0  0  0
 20 29  1  0  0  0
 20 30  1  0  0  0
M  END
$$$$
