


 21 19  0  0  1  0            999 V2000
    0.0561    1.8457    0.8937 C   0  0  0  0  0  0
    0.4502    1.6779    2.2410 O   0  0  0  0  0  0
    1.4327    0.6670    2.3483 C   0  0  0  0  0  0
   -0.7075    2.6411    0.8640 H   0  0  0  0  0  0
   -0.3822    0.9217    0.4804 H   0  0  0  0  0  0
    0.9043    2.1483    0.2568 H   0  0  0  0  0  0
    1.0533   -0.3073    1.9971 H   0  0  0  0  0  0
    2.3397    0.9192    1.7735 H   0  0  0  0  0  0
    1.7051    0.5755    3.4132 H   0  0  0  0  0  0
    3.9516    1.6569    0.0057 C   0  0  0  0  0  0
    2.9140    2.4717    0.5056 O   0  0  0  0  0  0
    3.3491    3.2329    1.6211 C   0  0  0  0  0  0
    2.1911    4.0788    2.1028 C   0  0  0  0  0  0
    3.5528    1.0940   -0.8549 H   0  0  0  0  0  0
    4.3039    0.9375    0.7640 H   0  0  0  0  0  0
    4.8113    2.2581   -0.3351 H   0  0  0  0  0  0
    3.6979    2.5526    2.4217 H   0  0  0  0  0  0
    4.2043    3.8704    1.3249 H   0  0  0  0  0  0
    1.8526    4.7576    1.3020 H   0  0  0  0  0  0
    1.3451    3.4370    2.4011 H   0  0  0  0  0  0
    2.4964    4.6851    2.9722 H   0  0  0  0  0  0
  1  2  1  0  0  0
  2  3  1  0  0  0
  1  4  1  0  0  0
  1  5  1  0  0  0
  1  6  1  0  0  0
  3  7  1  0  0  0
  3  8  1  0  0  0
  3  9  1  0  0  0
 10 11  1  0  0  0
 11 12  1  0  0  0
 12 13  1  0  0  0
 10 14  1  0  0  0
 10 15  1  0  0  0
 10 16  1  0  0  0
 12 17  1  0  0  0
 12 18  1  0  0  0
 13 19  1  0  0  0
 13 20  1  0  0  0
 13 21  1  0  0  0
M  END
$$$$
