


 22 20  0  0  1  0            999 V2000
   -1.1154    2.9432    7.3639 C   0  0  0  0  0  0
   -0.0041    3.1044    6.2617 C   0  0  0  0  0  0
   -0.6103    2.9067    4.8716 C   0  0  0  0  0  0
   -1.8385    2.7604    4.6017 O   0  0  0  0  0  0
    0.3207    2.9576    3.9031 O   0  0  0  0  0  0
   -1.8728    3.7040    7.1107 H   0  0  0  0  0  0
   -0.7511    3.1363    8.3870 H   0  0  0  0  0  0
   -1.5939    1.9497    7.3424 H   0  0  0  0  0  0
    0.5724    4.0390    6.4014 H   0  0  0  0  0  0
    0.7121    2.2606    6.2843 H   0  0  0  0  0  0
   -0.0402    2.8432    2.9818 H   0  0  0  0  0  0
   -3.3308   -0.6152   -3.5933 C   0  0  0  0  0  0
   -1.8598   -0.3096   -3.8753 C   0  0  0  0  0  0
   -1.1828   -1.4646   -4.6840 C   0  0  0  0  0  0
   -1.0427   -1.5337   -5.9144 O   0  0  0  0  0  0
   -0.8746   -2.4528   -3.8444 O   0  0  0  0  0  0
   -3.6949   -0.9814   -4.5679 H   0  0  0  0  0  0
   -3.8658    0.3170   -3.3456 H   0  0  0  0  0  0
   -3.5649   -1.3702   -2.8240 H   0  0  0  0  0  0
   -1.7118    0.6131   -4.4687 H   0  0  0  0  0  0
   -1.3880   -0.1530   -2.8862 H   0  0  0  0  0  0
   -0.4423   -3.2983   -4.1449 H   0  0  0  0  0  0
  1  2  1  0  0  0
  2  3  1  0  0  0
  3  4  2  0  0  0
  3  5  1  0  0  0
  1  6  1  0  0  0
  1  7  1  0  0  0
  1  8  1  0  0  0
  2  9  1  0  0  0
  2 10  1  0  0  0
  5 11  1  0  0  0
 12 13  1  0  0  0
 13 14  1  0  0  0
 14 15  2  0  0  0
 14 16  1  0  0  0
 12 17  1  0  0  0
 12 18  1  0  0  0
 12 19  1  0  0  0
 13 20  1  0  0  0
 13 21  1  0  0  0
 16 22  1  0  0  0
M  END
$$$$
