


 22 20  0  0  1  0            999 V2000
  -11.4533    0.0250   -6.5101 C   0  0  0  0  0  0
  -12.6302    1.0562   -6.7751 C   0  0  0  0  0  0
  -14.0108    0.4046   -6.8604 C   0  0  0  0  0  0
  -15.0795    0.8433   -6.4693 O   0  0  0  0  0  0
  -13.8772   -0.9073   -7.2133 O   0  0  0  0  0  0
  -11.7335   -0.6928   -5.7210 H   0  0  0  0  0  0
  -10.5810    0.6050   -6.1646 H   0  0  0  0  0  0
  -11.1653   -0.5394   -7.4130 H   0  0  0  0  0  0
  -12.6462    1.6724   -5.8556 H   0  0  0  0  0  0
  -12.3599    1.7188   -7.6196 H   0  0  0  0  0  0
  -14.6827   -1.4901   -7.1549 H   0  0  0  0  0  0
  -10.9410    4.7105   -5.8516 C   0  0  0  0  0  0
  -10.0921    6.0357   -6.0262 C   0  0  0  0  0  0
   -9.0598    5.8501   -7.0866 C   0  0  0  0  0  0
   -8.8423    4.8696   -7.7099 O   0  0  0  0  0  0
   -8.2702    7.0030   -7.1441 O   0  0  0  0  0  0
  -11.7448    4.7977   -5.1013 H   0  0  0  0  0  0
  -10.2309    3.9352   -5.5178 H   0  0  0  0  0  0
  -11.3863    4.3910   -6.8088 H   0  0  0  0  0  0
  -10.7459    6.8537   -6.3854 H   0  0  0  0  0  0
   -9.6082    6.3776   -5.0912 H   0  0  0  0  0  0
   -7.6291    6.8720   -7.8951 H   0  0  0  0  0  0
  1  2  1  0  0  0
  2  3  1  0  0  0
  3  4  2  0  0  0
  3  5  1  0  0  0
  1  6  1  0  0  0
  1  7  1  0  0  0
  1  8  1  0  0  0
  2  9  1  0  0  0
  2 10  1  0  0  0
  5 11  1  0  0  0
 12 13  1  0  0  0
 13 14  1  0  0  0
 14 15  2  0  0  0
 14 16  1  0  0  0
 12 17  1  0  0  0
 12 18  1  0  0  0
 12 19  1  0  0  0
 13 20  1  0  0  0
 13 21  1  0  0  0
 16 22  1  0  0  0
M  END
$$$$
