


 22 20  0  0  1  0            999 V2000
    0.0000    0.0000    0.0000 C   0  0  0  0  0  0
   -0.3048   -0.0347    1.5421 C   0  0  0  0  0  0
   -0.6652    1.3872    2.0159 C   0  0  0  0  0  0
   -1.7823    1.8142    1.9800 O   0  0  0  0  0  0
    0.4296    2.0703    2.4570 O   0  0  0  0  0  0
    0.7843    0.6549   -0.4155 H   0  0  0  0  0  0
   -0.9321    0.1645   -0.5663 H   0  0  0  0  0  0
    0.3116   -1.0497   -0.1325 H   0  0  0  0  0  0
   -1.1494   -0.7068    1.7877 H   0  0  0  0  0  0
    0.5745   -0.3728    2.1234 H   0  0  0  0  0  0
    0.2224    3.0092    2.7167 H   0  0  0  0  0  0
    0.4905    7.0228    4.2470 C   0  0  0  0  0  0
   -0.2074    6.9548    2.8866 C   0  0  0  0  0  0
   -0.1471    5.5093    2.3024 C   0  0  0  0  0  0
    0.2038    4.4486    2.9169 O   0  0  0  0  0  0
   -0.6321    5.6111    1.0327 O   0  0  0  0  0  0
    1.5032    6.5981    4.3503 H   0  0  0  0  0  0
   -0.1967    6.4563    4.8979 H   0  0  0  0  0  0
    0.5126    8.0718    4.5872 H   0  0  0  0  0  0
   -1.2466    7.3329    2.8371 H   0  0  0  0  0  0
    0.4137    7.5896    2.2257 H   0  0  0  0  0  0
   -0.8196    4.7084    0.6559 H   0  0  0  0  0  0
  1  2  1  0  0  0
  2  3  1  0  0  0
  3  4  2  0  0  0
  3  5  1  0  0  0
  1  6  1  0  0  0
  1  7  1  0  0  0
  1  8  1  0  0  0
  2  9  1  0  0  0
  2 10  1  0  0  0
  5 11  1  0  0  0
 12 13  1  0  0  0
 13 14  1  0  0  0
 14 15  2  0  0  0
 14 16  1  0  0  0
 12 17  1  0  0  0
 12 18  1  0  0  0
 12 19  1  0  0  0
 13 20  1  0  0  0
 13 21  1  0  0  0
 16 22  1  0  0  0
M  END
$$$$
