


 22 20  0  0  1  0            999 V2000
    6.8900    3.2943    4.1133 C   0  0  0  0  0  0
    5.3400    3.1619    4.3160 C   0  0  0  0  0  0
    4.6750    2.4172    3.0941 C   0  0  0  0  0  0
    4.9819    2.6201    1.9329 O   0  0  0  0  0  0
    3.7872    1.4670    3.3918 O   0  0  0  0  0  0
    7.1400    3.7813    3.1558 H   0  0  0  0  0  0
    7.3309    2.2833    4.1195 H   0  0  0  0  0  0
    7.3395    3.8792    4.9334 H   0  0  0  0  0  0
    5.1185    2.5917    5.2386 H   0  0  0  0  0  0
    4.7971    4.1247    4.3767 H   0  0  0  0  0  0
    3.3179    1.1930    2.5571 H   0  0  0  0  0  0
    4.2051   -2.5549   -5.5778 C   0  0  0  0  0  0
    3.6062   -1.7787   -4.3866 C   0  0  0  0  0  0
    3.6100   -2.6435   -3.1080 C   0  0  0  0  0  0
    2.6528   -3.0141   -2.4608 O   0  0  0  0  0  0
    4.9004   -2.9967   -2.7795 O   0  0  0  0  0  0
    4.1053   -3.6436   -5.4313 H   0  0  0  0  0  0
    5.2737   -2.3138   -5.7064 H   0  0  0  0  0  0
    3.6676   -2.2732   -6.4988 H   0  0  0  0  0  0
    4.2171   -0.8641   -4.2610 H   0  0  0  0  0  0
    2.5476   -1.4670   -4.4733 H   0  0  0  0  0  0
    4.8074   -3.4790   -1.9131 H   0  0  0  0  0  0
  1  2  1  0  0  0
  2  3  1  0  0  0
  3  4  2  0  0  0
  3  5  1  0  0  0
  1  6  1  0  0  0
  1  7  1  0  0  0
  1  8  1  0  0  0
  2  9  1  0  0  0
  2 10  1  0  0  0
  5 11  1  0  0  0
 12 13  1  0  0  0
 13 14  1  0  0  0
 14 15  2  0  0  0
 14 16  1  0  0  0
 12 17  1  0  0  0
 12 18  1  0  0  0
 12 19  1  0  0  0
 13 20  1  0  0  0
 13 21  1  0  0  0
 16 22  1  0  0  0
M  END
$$$$
