


 25 23  0  0  1  0            999 V2000
    3.6225    0.8870    0.1038 C   0  0  0  0  0  0
    2.7915    1.9987   -0.3153 N   0  0  0  0  0  0
    2.6860    3.1206    0.4498 C   0  0  0  0  0  0
    3.2865    3.2307    1.5147 O   0  0  0  0  0  0
    1.7843    4.1998   -0.1111 C   0  0  0  0  0  0
    3.5649    0.0888   -0.6553 H   0  0  0  0  0  0
    3.2791    0.4794    1.0695 H   0  0  0  0  0  0
    4.6755    1.1983    0.2078 H   0  0  0  0  0  0
    2.2751    1.9451   -1.1968 H   0  0  0  0  0  0
    0.7520    3.8301   -0.2303 H   0  0  0  0  0  0
    1.7734    5.0553    0.5850 H   0  0  0  0  0  0
    2.1484    4.5490   -1.0920 H   0  0  0  0  0  0
   -0.3856    1.5732    1.4302 O   0  0  0  0  0  0
   -1.0282    2.0533    2.6059 C   0  0  0  0  0  0
   -0.0699    2.7321    3.5774 C   0  0  0  0  0  0
    0.9106    1.7638    4.2227 C   0  0  0  0  0  0
    1.7553    1.0992    3.2679 O   0  0  0  0  0  0
    0.3842    1.0504    1.7378 H   0  0  0  0  0  0
   -1.7938    2.7743    2.2604 H   0  0  0  0  0  0
   -1.5526    1.2297    3.1277 H   0  0  0  0  0  0
    0.4821    3.5309    3.0458 H   0  0  0  0  0  0
   -0.6576    3.2094    4.3850 H   0  0  0  0  0  0
    1.5277    2.2770    4.9851 H   0  0  0  0  0  0
    0.3598    0.9479    4.7290 H   0  0  0  0  0  0
    2.3641    1.7708    2.8955 H   0  0  0  0  0  0
  1  2  1  0  0  0
  2  3  1  0  0  0
  3  4  2  0  0  0
  3  5  1  0  0  0
  1  6  1  0  0  0
  1  7  1  0  0  0
  1  8  1  0  0  0
  2  9  1  0  0  0
  5 10  1  0  0  0
  5 11  1  0  0  0
  5 12  1  0  0  0
 13 14  1  0  0  0
 14 15  1  0  0  0
 15 16  1  0  0  0
 16 17  1  0  0  0
 13 18  1  0  0  0
 14 19  1  0  0  0
 14 20  1  0  0  0
 15 21  1  0  0  0
 15 22  1  0  0  0
 16 23  1  0  0  0
 16 24  1  0  0  0
 17 25  1  0  0  0
M  END
$$$$
