


  6  4  0  0  1  0            999 V2000
    2.1131    0.6579    1.3854 F   0  0  0  0  0  0
    1.2937    0.9452    2.4262 C   0  0  0  0  0  0
    0.5662    2.0466    2.1184 F   0  0  0  0  0  0
    0.6210    0.0894    2.6278 H   0  0  0  0  0  0
    1.8903    1.1271    3.3407 H   0  0  0  0  0  0
    1.4877    2.6621   -0.4186 K   0  0  0  0  0  0
  1  2  1  0  0  0
  2  3  1  0  0  0
  2  4  1  0  0  0
  2  5  1  0  0  0
M  CHG  1   6   1
M  END
$$$$
