


 32 30  0  0  1  0            999 V2000
    1.8616    9.6304    5.7710 C   0  0  0  0  0  0
    2.8569    8.6451    5.4663 O   0  0  0  0  0  0
    2.4989    7.3418    5.6703 C   0  0  0  0  0  0
    1.4416    7.0478    4.8276 O   0  0  0  0  0  0
    1.8236    7.0339    3.4879 C   0  0  0  0  0  0
    0.6317    6.2394    2.9044 C   0  0  0  0  0  0
    1.7227    9.7220    6.8614 H   0  0  0  0  0  0
    0.8762    9.4663    5.3034 H   0  0  0  0  0  0
    2.2792   10.5770    5.3888 H   0  0  0  0  0  0
    3.3486    6.6946    5.3794 H   0  0  0  0  0  0
    2.2118    7.0751    6.7057 H   0  0  0  0  0  0
    1.9134    8.0411    3.0376 H   0  0  0  0  0  0
    2.7859    6.5090    3.3333 H   0  0  0  0  0  0
    0.6710    5.2069    3.2903 H   0  0  0  0  0  0
    0.5589    6.2013    1.8044 H   0  0  0  0  0  0
   -0.2742    6.7286    3.3001 H   0  0  0  0  0  0
   -1.6621    5.7583   -3.3367 C   0  0  0  0  0  0
   -2.0977    5.7410   -4.6936 O   0  0  0  0  0  0
   -2.3567    4.4209   -5.1104 C   0  0  0  0  0  0
   -1.2036    3.6906   -5.1890 O   0  0  0  0  0  0
   -0.6295    3.5911   -6.5001 C   0  0  0  0  0  0
    0.8426    3.6363   -6.1917 C   0  0  0  0  0  0
   -1.3657    6.7891   -3.0793 H   0  0  0  0  0  0
   -0.7962    5.0935   -3.1787 H   0  0  0  0  0  0
   -2.4739    5.4460   -2.6586 H   0  0  0  0  0  0
   -3.0417    3.8547   -4.4503 H   0  0  0  0  0  0
   -2.8638    4.5560   -6.0851 H   0  0  0  0  0  0
   -0.9646    2.6504   -6.9780 H   0  0  0  0  0  0
   -0.8388    4.4194   -7.2041 H   0  0  0  0  0  0
    1.1652    4.5223   -5.6194 H   0  0  0  0  0  0
    1.4796    3.5450   -7.0875 H   0  0  0  0  0  0
    0.9869    2.7406   -5.5646 H   0  0  0  0  0  0
  1  2  1  0  0  0
  2  3  1  0  0  0
  3  4  1  0  0  0
  4  5  1  0  0  0
  5  6  1  0  0  0
  1  7  1  0  0  0
  1  8  1  0  0  0
  1  9  1  0  0  0
  3 10  1  0  0  0
  3 11  1  0  0  0
  5 12  1  0  0  0
  5 13  1  0  0  0
  6 14  1  0  0  0
  6 15  1  0  0  0
  6 16  1  0  0  0
 17 18  1  0  0  0
 18 19  1  0  0  0
 19 20  1  0  0  0
 20 21  1  0  0  0
 21 22  1  0  0  0
 17 23  1  0  0  0
 17 24  1  0  0  0
 17 25  1  0  0  0
 19 26  1  0  0  0
 19 27  1  0  0  0
 21 28  1  0  0  0
 21 29  1  0  0  0
 22 30  1  0  0  0
 22 31  1  0  0  0
 22 32  1  0  0  0
M  END
$$$$
