


  9  7  0  0  1  0            999 V2000
    0.0000    0.0000    0.0000 C   0  0  0  0  0  0
    1.0500   -0.8991   -0.0660 C   0  0  0  0  0  0
   -0.8552   -0.0874    0.6799 H   0  0  0  0  0  0
    0.0117    0.8449   -0.6980 H   0  0  0  0  0  0
    1.1958   -1.7242    0.6405 H   0  0  0  0  0  0
    1.7787   -0.7882   -0.8772 H   0  0  0  0  0  0
    4.0715   -4.0609    1.3289 O   0  0  0  0  0  0
    3.2938   -3.5905    1.7059 H   0  0  0  0  0  0
    4.2834   -3.5682    0.5038 H   0  0  0  0  0  0
  1  2  2  0  0  0
  1  3  1  0  0  0
  1  4  1  0  0  0
  2  5  1  0  0  0
  2  6  1  0  0  0
  7  8  1  0  0  0
  7  9  1  0  0  0
M  END
$$$$
