


  9  7  0  0  1  0            999 V2000
    0.0000    0.0000    0.0000 C   0  0  0  0  0  0
   -1.1305   -0.6638    0.2042 C   0  0  0  0  0  0
    0.4567   -0.0661   -0.9941 H   0  0  0  0  0  0
    0.5351    0.5677    0.7697 H   0  0  0  0  0  0
   -1.6247   -1.1979   -0.6153 H   0  0  0  0  0  0
   -1.6222   -0.6664    1.1837 H   0  0  0  0  0  0
    3.9717   -1.9175   -2.8895 O   0  0  0  0  0  0
    3.3675   -1.5585   -2.2008 H   0  0  0  0  0  0
    3.8096   -1.3541   -3.6798 H   0  0  0  0  0  0
  1  2  2  0  0  0
  1  3  1  0  0  0
  1  4  1  0  0  0
  2  5  1  0  0  0
  2  6  1  0  0  0
  7  8  1  0  0  0
  7  9  1  0  0  0
M  END
$$$$
