


  9  7  0  0  1  0            999 V2000
    0.0000    0.0000    0.0000 C   0  0  0  0  0  0
   -0.5334    1.1538    0.4644 C   0  0  0  0  0  0
    1.0016   -0.2910    0.3365 H   0  0  0  0  0  0
   -0.5505   -0.7065   -0.6317 H   0  0  0  0  0  0
    0.0684    1.8569    1.0515 H   0  0  0  0  0  0
   -1.5407    1.4687    0.1687 H   0  0  0  0  0  0
    1.5865   -1.4925    1.3236 O   0  0  0  0  0  0
    1.6442   -1.6931    0.3620 H   0  0  0  0  0  0
    2.2064   -0.7401    1.4576 H   0  0  0  0  0  0
  1  2  2  0  0  0
  1  3  1  0  0  0
  1  4  1  0  0  0
  2  5  1  0  0  0
  2  6  1  0  0  0
  7  8  1  0  0  0
  7  9  1  0  0  0
M  END
$$$$
