


  9  7  0  0  1  0            999 V2000
    0.0000    0.0000    0.0000 C   0  0  0  0  0  0
   -0.2863    1.3227   -0.1432 C   0  0  0  0  0  0
   -0.6126   -0.6822    0.6005 H   0  0  0  0  0  0
    0.8702   -0.4189   -0.5181 H   0  0  0  0  0  0
   -1.2101    1.7605    0.2520 H   0  0  0  0  0  0
    0.3667    1.9668   -0.7432 H   0  0  0  0  0  0
   -0.8163   -2.7120    1.2631 O   0  0  0  0  0  0
   -1.2334   -2.0923    1.9036 H   0  0  0  0  0  0
   -0.2580   -2.1384    0.6907 H   0  0  0  0  0  0
  1  2  2  0  0  0
  1  3  1  0  0  0
  1  4  1  0  0  0
  2  5  1  0  0  0
  2  6  1  0  0  0
  7  8  1  0  0  0
  7  9  1  0  0  0
M  END
$$$$
