


 16 14  0  0  1  0            999 V2000
   -0.4721    2.1034    1.3931 C   0  0  0  0  0  0
    0.6030    2.8362    0.7352 C   0  0  0  0  0  0
    1.4658    3.4244    0.2071 N   0  0  0  0  0  0
   -1.1138    2.7952    1.9644 H   0  0  0  0  0  0
   -0.0562    1.3545    2.0879 H   0  0  0  0  0  0
   -1.0942    1.5826    0.6458 H   0  0  0  0  0  0
    2.1956   -0.4140    0.0601 C   0  0  0  0  0  0
    3.0409   -0.4325    1.3241 C   0  0  0  0  0  0
    2.6318    0.6650    2.2097 N   0  0  0  0  0  0
    1.1269   -0.4972    0.3199 H   0  0  0  0  0  0
    2.4636   -1.2557   -0.6005 H   0  0  0  0  0  0
    2.3514    0.5288   -0.4907 H   0  0  0  0  0  0
    2.8667   -1.3792    1.8709 H   0  0  0  0  0  0
    4.1123   -0.3954    1.0482 H   0  0  0  0  0  0
    3.1983    0.6629    3.0652 H   0  0  0  0  0  0
    2.8142    1.5638    1.7499 H   0  0  0  0  0  0
  1  2  1  0  0  0
  2  3  3  0  0  0
  1  4  1  0  0  0
  1  5  1  0  0  0
  1  6  1  0  0  0
  7  8  1  0  0  0
  8  9  1  0  0  0
  7 10  1  0  0  0
  7 11  1  0  0  0
  7 12  1  0  0  0
  8 13  1  0  0  0
  8 14  1  0  0  0
  9 15  1  0  0  0
  9 16  1  0  0  0
M  END
$$$$
