


 22 20  0  0  1  0            999 V2000
    2.1501    1.1557    3.4002 C   0  0  0  0  0  0
    2.4232    2.1900    2.3307 C   0  0  0  0  0  0
    1.0901    3.5974    2.3551 Br  0  0  0  0  0  0
    2.9249    0.3718    3.3585 H   0  0  0  0  0  0
    1.1646    0.6848    3.2466 H   0  0  0  0  0  0
    2.1681    1.6152    4.4027 H   0  0  0  0  0  0
    3.4001    2.6936    2.4625 H   0  0  0  0  0  0
    2.3987    1.7651    1.3088 H   0  0  0  0  0  0
   -0.4673    2.2571   -1.4254 C   0  0  0  0  0  0
    0.4748    1.0859   -1.1488 C   0  0  0  0  0  0
    0.0367    0.2542    0.0546 C   0  0  0  0  0  0
    0.9789   -0.9170    0.3312 C   0  0  0  0  0  0
   -0.1263    2.8386   -2.2985 H   0  0  0  0  0  0
   -0.5053    2.9266   -0.5497 H   0  0  0  0  0  0
   -1.4854    1.8837   -1.6273 H   0  0  0  0  0  0
    0.5183    0.4294   -2.0391 H   0  0  0  0  0  0
    1.4963    1.4702   -0.9638 H   0  0  0  0  0  0
   -0.0067    0.9106    0.9449 H   0  0  0  0  0  0
   -0.9848   -0.1301   -0.1304 H   0  0  0  0  0  0
    1.9969   -0.5437    0.5331 H   0  0  0  0  0  0
    1.0168   -1.5866   -0.5445 H   0  0  0  0  0  0
    0.6379   -1.4986    1.2042 H   0  0  0  0  0  0
  1  2  1  0  0  0
  2  3  1  0  0  0
  1  4  1  0  0  0
  1  5  1  0  0  0
  1  6  1  0  0  0
  2  7  1  0  0  0
  2  8  1  0  0  0
  9 10  1  0  0  0
 10 11  1  0  0  0
 11 12  1  0  0  0
  9 13  1  0  0  0
  9 14  1  0  0  0
  9 15  1  0  0  0
 10 16  1  0  0  0
 10 17  1  0  0  0
 11 18  1  0  0  0
 11 19  1  0  0  0
 12 20  1  0  0  0
 12 21  1  0  0  0
 12 22  1  0  0  0
M  END
$$$$
