


 24 22  0  0  1  0            999 V2000
    0.0000    0.0000    0.0000 C   0  0  0  0  0  0
   -1.4072    0.2792    0.4831 C   0  0  0  0  0  0
   -1.5887    1.6605    0.3895 O   0  0  0  0  0  0
   -2.5289   -0.5125   -0.3508 C   0  0  0  0  0  0
    0.1980    0.4530   -0.9860 H   0  0  0  0  0  0
    0.1522   -1.0898   -0.0766 H   0  0  0  0  0  0
    0.7245    0.4063    0.7257 H   0  0  0  0  0  0
   -1.3144   -0.0361    1.5422 H   0  0  0  0  0  0
   -2.5461    1.8473    0.4843 H   0  0  0  0  0  0
   -3.5286   -0.2482    0.0332 H   0  0  0  0  0  0
   -2.3777   -1.5974   -0.2210 H   0  0  0  0  0  0
   -2.4928   -0.2787   -1.4281 H   0  0  0  0  0  0
    1.1317    4.9224   -2.2993 C   0  0  0  0  0  0
    0.8468    4.1065   -1.0833 C   0  0  0  0  0  0
   -0.2590    3.3138   -1.6051 O   0  0  0  0  0  0
    2.0093    3.3146   -0.5203 C   0  0  0  0  0  0
    2.1927    5.2172   -2.2370 H   0  0  0  0  0  0
    0.5163    5.8353   -2.3668 H   0  0  0  0  0  0
    0.9845    4.3303   -3.2182 H   0  0  0  0  0  0
    0.6228    4.8030   -0.2499 H   0  0  0  0  0  0
   -0.7518    2.9178   -0.8562 H   0  0  0  0  0  0
    2.7971    3.9725   -0.1163 H   0  0  0  0  0  0
    2.4434    2.7002   -1.3269 H   0  0  0  0  0  0
    1.6632    2.6448    0.2849 H   0  0  0  0  0  0
  1  2  1  0  0  0
  2  3  1  0  0  0
  2  4  1  0  0  0
  1  5  1  0  0  0
  1  6  1  0  0  0
  1  7  1  0  0  0
  2  8  1  0  0  0
  3  9  1  0  0  0
  4 10  1  0  0  0
  4 11  1  0  0  0
  4 12  1  0  0  0
 13 14  1  0  0  0
 14 15  1  0  0  0
 14 16  1  0  0  0
 13 17  1  0  0  0
 13 18  1  0  0  0
 13 19  1  0  0  0
 14 20  1  0  0  0
 15 21  1  0  0  0
 16 22  1  0  0  0
 16 23  1  0  0  0
 16 24  1  0  0  0
M  END
$$$$
