


 24 22  0  0  1  0            999 V2000
   -3.1239    5.2744   12.9975 C   0  0  0  0  0  0
   -1.7432    4.6092   13.0846 C   0  0  0  0  0  0
   -2.0828    3.2886   13.6382 O   0  0  0  0  0  0
   -1.0655    4.3539   11.7791 C   0  0  0  0  0  0
   -3.8291    4.8142   12.2851 H   0  0  0  0  0  0
   -2.9367    6.3153   12.6845 H   0  0  0  0  0  0
   -3.5907    5.2860   13.9967 H   0  0  0  0  0  0
   -1.1623    5.1458   13.8621 H   0  0  0  0  0  0
   -1.2723    2.9592   14.0797 H   0  0  0  0  0  0
   -1.8554    4.1275   11.0432 H   0  0  0  0  0  0
   -0.3547    3.5109   11.8028 H   0  0  0  0  0  0
   -0.5273    5.2588   11.4502 H   0  0  0  0  0  0
   -6.6083   -1.1789   15.0117 C   0  0  0  0  0  0
   -5.3938   -0.2919   14.6418 C   0  0  0  0  0  0
   -5.7589    1.0956   14.6099 O   0  0  0  0  0  0
   -4.1465   -0.5584   15.4947 C   0  0  0  0  0  0
   -7.4968   -0.8571   14.4429 H   0  0  0  0  0  0
   -6.8135   -1.0492   16.0877 H   0  0  0  0  0  0
   -6.4326   -2.2497   14.8137 H   0  0  0  0  0  0
   -5.1548   -0.6008   13.6038 H   0  0  0  0  0  0
   -4.9224    1.5687   14.4177 H   0  0  0  0  0  0
   -3.8690    0.2297   16.2149 H   0  0  0  0  0  0
   -3.2846   -0.7505   14.8339 H   0  0  0  0  0  0
   -4.3739   -1.4816   16.0538 H   0  0  0  0  0  0
  1  2  1  0  0  0
  2  3  1  0  0  0
  2  4  1  0  0  0
  1  5  1  0  0  0
  1  6  1  0  0  0
  1  7  1  0  0  0
  2  8  1  0  0  0
  3  9  1  0  0  0
  4 10  1  0  0  0
  4 11  1  0  0  0
  4 12  1  0  0  0
 13 14  1  0  0  0
 14 15  1  0  0  0
 14 16  1  0  0  0
 13 17  1  0  0  0
 13 18  1  0  0  0
 13 19  1  0  0  0
 14 20  1  0  0  0
 15 21  1  0  0  0
 16 22  1  0  0  0
 16 23  1  0  0  0
 16 24  1  0  0  0
M  END
$$$$
