


 24 22  0  0  1  0            999 V2000
   -9.7426    0.9463    1.3926 C   0  0  0  0  0  0
   -9.3034    2.3817    1.8417 C   0  0  0  0  0  0
   -7.8773    2.3530    2.1350 O   0  0  0  0  0  0
   -9.5848    3.4852    0.7764 C   0  0  0  0  0  0
  -10.8280    0.9968    1.2031 H   0  0  0  0  0  0
   -9.5638    0.2524    2.2311 H   0  0  0  0  0  0
   -9.2466    0.5457    0.4925 H   0  0  0  0  0  0
   -9.8694    2.6820    2.7469 H   0  0  0  0  0  0
   -7.2151    2.1491    1.4419 H   0  0  0  0  0  0
   -9.3172    4.5101    1.0838 H   0  0  0  0  0  0
  -10.6481    3.4721    0.4835 H   0  0  0  0  0  0
   -8.9749    3.2103   -0.1005 H   0  0  0  0  0  0
   -4.4674    0.3649   -2.4638 C   0  0  0  0  0  0
   -5.6312    1.2206   -1.8874 C   0  0  0  0  0  0
   -5.3758    1.7856   -0.5973 O   0  0  0  0  0  0
   -5.8897    2.3791   -2.8647 C   0  0  0  0  0  0
   -3.4648    0.8193   -2.3930 H   0  0  0  0  0  0
   -4.7256    0.2465   -3.5296 H   0  0  0  0  0  0
   -4.4347   -0.6338   -1.9967 H   0  0  0  0  0  0
   -6.5256    0.5667   -1.9354 H   0  0  0  0  0  0
   -4.4434    2.0839   -0.6427 H   0  0  0  0  0  0
   -6.5486    3.1033   -2.3568 H   0  0  0  0  0  0
   -6.3824    2.0467   -3.7939 H   0  0  0  0  0  0
   -4.9466    2.8865   -3.1287 H   0  0  0  0  0  0
  1  2  1  0  0  0
  2  3  1  0  0  0
  2  4  1  0  0  0
  1  5  1  0  0  0
  1  6  1  0  0  0
  1  7  1  0  0  0
  2  8  1  0  0  0
  3  9  1  0  0  0
  4 10  1  0  0  0
  4 11  1  0  0  0
  4 12  1  0  0  0
 13 14  1  0  0  0
 14 15  1  0  0  0
 14 16  1  0  0  0
 13 17  1  0  0  0
 13 18  1  0  0  0
 13 19  1  0  0  0
 14 20  1  0  0  0
 15 21  1  0  0  0
 16 22  1  0  0  0
 16 23  1  0  0  0
 16 24  1  0  0  0
M  END
$$$$
