


 24 22  0  0  1  0            999 V2000
   -1.8109   -1.0430   -3.4429 C   0  0  0  0  0  0
   -0.5766   -1.9171   -3.8789 C   0  0  0  0  0  0
   -0.9305   -2.8458   -4.8949 O   0  0  0  0  0  0
    0.5865   -1.0458   -4.2978 C   0  0  0  0  0  0
   -1.5878   -0.3233   -2.6374 H   0  0  0  0  0  0
   -2.6705   -1.6613   -3.1340 H   0  0  0  0  0  0
   -2.0898   -0.4807   -4.3498 H   0  0  0  0  0  0
   -0.2743   -2.4770   -2.9707 H   0  0  0  0  0  0
   -0.2132   -3.5085   -4.9767 H   0  0  0  0  0  0
    1.3217   -1.7522   -4.7186 H   0  0  0  0  0  0
    1.0501   -0.5219   -3.4450 H   0  0  0  0  0  0
    0.3309   -0.3018   -5.0710 H   0  0  0  0  0  0
    0.2127   -5.4823   -2.7474 C   0  0  0  0  0  0
    1.5045   -5.1293   -3.5150 C   0  0  0  0  0  0
    1.0599   -4.6051   -4.7527 O   0  0  0  0  0  0
    2.3201   -4.0879   -2.6864 C   0  0  0  0  0  0
    0.4802   -6.1940   -1.9483 H   0  0  0  0  0  0
   -0.5422   -5.9530   -3.3995 H   0  0  0  0  0  0
   -0.2320   -4.5850   -2.2851 H   0  0  0  0  0  0
    2.1279   -6.0162   -3.7485 H   0  0  0  0  0  0
    1.5863   -5.0812   -5.4284 H   0  0  0  0  0  0
    1.7687   -3.1800   -2.3893 H   0  0  0  0  0  0
    3.1779   -3.7895   -3.3124 H   0  0  0  0  0  0
    2.7028   -4.5805   -1.7768 H   0  0  0  0  0  0
  1  2  1  0  0  0
  2  3  1  0  0  0
  2  4  1  0  0  0
  1  5  1  0  0  0
  1  6  1  0  0  0
  1  7  1  0  0  0
  2  8  1  0  0  0
  3  9  1  0  0  0
  4 10  1  0  0  0
  4 11  1  0  0  0
  4 12  1  0  0  0
 13 14  1  0  0  0
 14 15  1  0  0  0
 14 16  1  0  0  0
 13 17  1  0  0  0
 13 18  1  0  0  0
 13 19  1  0  0  0
 14 20  1  0  0  0
 15 21  1  0  0  0
 16 22  1  0  0  0
 16 23  1  0  0  0
 16 24  1  0  0  0
M  END
$$$$
