


 24 22  0  0  1  0            999 V2000
   -0.3576   -2.7547   -6.2999 C   0  0  0  0  0  0
   -1.4220   -2.8020   -5.1865 C   0  0  0  0  0  0
   -0.7363   -3.5433   -4.1866 O   0  0  0  0  0  0
   -1.6129   -1.3284   -4.7242 C   0  0  0  0  0  0
   -0.1146   -3.7851   -6.6093 H   0  0  0  0  0  0
    0.5584   -2.2786   -5.9116 H   0  0  0  0  0  0
   -0.6979   -2.1924   -7.1857 H   0  0  0  0  0  0
   -2.3925   -3.1799   -5.5673 H   0  0  0  0  0  0
   -0.0347   -3.0226   -3.7426 H   0  0  0  0  0  0
   -0.6206   -0.8505   -4.6634 H   0  0  0  0  0  0
   -2.0357   -1.3920   -3.7075 H   0  0  0  0  0  0
   -2.2719   -0.6936   -5.3402 H   0  0  0  0  0  0
   -3.4256    1.1257    1.3497 C   0  0  0  0  0  0
   -4.6265    0.6025    0.4657 C   0  0  0  0  0  0
   -5.6439    1.4546    0.9384 O   0  0  0  0  0  0
   -4.2847    0.6970   -1.0115 C   0  0  0  0  0  0
   -3.3007    2.1427    0.9413 H   0  0  0  0  0  0
   -2.4842    0.5698    1.2033 H   0  0  0  0  0  0
   -3.6238    1.2031    2.4319 H   0  0  0  0  0  0
   -4.8958   -0.4557    0.6596 H   0  0  0  0  0  0
   -6.5303    1.0676    0.7804 H   0  0  0  0  0  0
   -3.9206    1.7291   -1.1481 H   0  0  0  0  0  0
   -5.1825    0.5550   -1.6364 H   0  0  0  0  0  0
   -3.5026   -0.0005   -1.3557 H   0  0  0  0  0  0
  1  2  1  0  0  0
  2  3  1  0  0  0
  2  4  1  0  0  0
  1  5  1  0  0  0
  1  6  1  0  0  0
  1  7  1  0  0  0
  2  8  1  0  0  0
  3  9  1  0  0  0
  4 10  1  0  0  0
  4 11  1  0  0  0
  4 12  1  0  0  0
 13 14  1  0  0  0
 14 15  1  0  0  0
 14 16  1  0  0  0
 13 17  1  0  0  0
 13 18  1  0  0  0
 13 19  1  0  0  0
 14 20  1  0  0  0
 15 21  1  0  0  0
 16 22  1  0  0  0
 16 23  1  0  0  0
 16 24  1  0  0  0
M  END
$$$$
