


 28 27  0  0  1  0            999 V2000
    3.1008    3.3634    0.2943 C   0  0  0  0  0  0
    1.7913    3.1260   -0.4584 C   0  0  0  0  0  0
    1.0201    1.9845    0.2050 C   0  0  0  0  0  0
    0.8674    2.2584    1.6946 C   0  0  0  0  0  0
    2.1286    2.4365    2.3298 O   0  0  0  0  0  0
    2.8194    3.5520    1.7784 C   0  0  0  0  0  0
    3.6307    4.2530   -0.0973 H   0  0  0  0  0  0
    3.7700    2.4906    0.1685 H   0  0  0  0  0  0
    1.1790    4.0472   -0.4161 H   0  0  0  0  0  0
    1.9866    2.9003   -1.5244 H   0  0  0  0  0  0
    1.5709    1.0332    0.0741 H   0  0  0  0  0  0
    0.0198    1.8600   -0.2523 H   0  0  0  0  0  0
    0.3763    1.4157    2.2182 H   0  0  0  0  0  0
    0.2450    3.1604    1.8510 H   0  0  0  0  0  0
    3.7538    3.6540    2.3632 H   0  0  0  0  0  0
    2.2218    4.4705    1.9359 H   0  0  0  0  0  0
    4.7796    0.0891    5.4773 C   0  0  0  0  0  0
    4.3810   -0.2075    4.1152 N   0  0  0  0  0  0
    4.8644   -1.3038    3.4677 C   0  0  0  0  0  0
    5.6499   -2.0757    4.0099 O   0  0  0  0  0  0
    4.3626   -1.4883    2.0512 C   0  0  0  0  0  0
    4.2755    1.0133    5.8065 H   0  0  0  0  0  0
    5.8702    0.2397    5.5456 H   0  0  0  0  0  0
    4.4942   -0.7294    6.1593 H   0  0  0  0  0  0
    3.7279    0.4120    3.6290 H   0  0  0  0  0  0
    4.6413   -0.6292    1.4179 H   0  0  0  0  0  0
    4.8154   -2.4000    1.6265 H   0  0  0  0  0  0
    3.2653   -1.5984    2.0316 H   0  0  0  0  0  0
  1  2  1  0  0  0
  2  3  1  0  0  0
  3  4  1  0  0  0
  4  5  1  0  0  0
  5  6  1  0  0  0
  1  6  1  0  0  0
  1  7  1  0  0  0
  1  8  1  0  0  0
  2  9  1  0  0  0
  2 10  1  0  0  0
  3 11  1  0  0  0
  3 12  1  0  0  0
  4 13  1  0  0  0
  4 14  1  0  0  0
  6 15  1  0  0  0
  6 16  1  0  0  0
 17 18  1  0  0  0
 18 19  1  0  0  0
 19 20  2  0  0  0
 19 21  1  0  0  0
 17 22  1  0  0  0
 17 23  1  0  0  0
 17 24  1  0  0  0
 18 25  1  0  0  0
 21 26  1  0  0  0
 21 27  1  0  0  0
 21 28  1  0  0  0
M  END
$$$$
