


 21 19  0  0  1  0            999 V2000
    1.2825    5.5467   -0.1179 C   0  0  0  0  0  0
    1.4450    4.2395    0.6576 C   0  0  0  0  0  0
    0.9365    3.0296   -0.1242 C   0  0  0  0  0  0
    1.0945    1.7195    0.6467 C   0  0  0  0  0  0
    0.6759    0.4767   -0.1433 C   0  0  0  0  0  0
   -0.8145    0.4479   -0.4882 C   0  0  0  0  0  0
    1.8443    5.4962   -1.0658 H   0  0  0  0  0  0
    1.6589    6.4014    0.4690 H   0  0  0  0  0  0
    0.2179    5.7199   -0.3486 H   0  0  0  0  0  0
    2.5140    4.0855    0.9004 H   0  0  0  0  0  0
    0.8892    4.3066    1.6126 H   0  0  0  0  0  0
   -0.1297    3.1944   -0.3722 H   0  0  0  0  0  0
    1.4961    2.9557   -1.0764 H   0  0  0  0  0  0
    2.1567    1.6149    0.9405 H   0  0  0  0  0  0
    0.4926    1.7741    1.5741 H   0  0  0  0  0  0
    1.2691    0.4303   -1.0768 H   0  0  0  0  0  0
    0.9204   -0.4216    0.4557 H   0  0  0  0  0  0
   -1.0744   -0.5027   -0.9835 H   0  0  0  0  0  0
   -1.4137    0.5397    0.4334 H   0  0  0  0  0  0
   -1.0775    1.2798   -1.1631 H   0  0  0  0  0  0
    2.5217    2.7951    3.8266 Na  0  0  0  0  0  0
  1  2  1  0  0  0
  2  3  1  0  0  0
  3  4  1  0  0  0
  4  5  1  0  0  0
  5  6  1  0  0  0
  1  7  1  0  0  0
  1  8  1  0  0  0
  1  9  1  0  0  0
  2 10  1  0  0  0
  2 11  1  0  0  0
  3 12  1  0  0  0
  3 13  1  0  0  0
  4 14  1  0  0  0
  4 15  1  0  0  0
  5 16  1  0  0  0
  5 17  1  0  0  0
  6 18  1  0  0  0
  6 19  1  0  0  0
  6 20  1  0  0  0
M  CHG  1  21   1
M  END
$$$$
