


 16 14  0  0  1  0            999 V2000
    4.3502    0.3630   -0.0357 C   0  0  0  0  0  0
    3.1037    1.0726    0.3986 C   0  0  0  0  0  0
    3.0696    2.3343   -0.1319 F   0  0  0  0  0  0
    1.9983    0.4146   -0.0698 F   0  0  0  0  0  0
    4.3884    0.3061   -1.1366 H   0  0  0  0  0  0
    4.3721   -0.6623    0.3705 H   0  0  0  0  0  0
    5.2447    0.9014    0.3200 H   0  0  0  0  0  0
    2.9908    1.1712    1.4974 H   0  0  0  0  0  0
   -0.2771    2.8359    1.0901 C   0  0  0  0  0  0
   -0.2623    1.5439    1.8495 C   0  0  0  0  0  0
    0.8442    1.4815    2.6535 F   0  0  0  0  0  0
   -1.3550    1.4665    2.6708 F   0  0  0  0  0  0
   -0.2774    3.6866    1.7922 H   0  0  0  0  0  0
   -1.1783    2.9014    0.4576 H   0  0  0  0  0  0
    0.6130    2.9137    0.4435 H   0  0  0  0  0  0
   -0.2611    0.6366    1.2118 H   0  0  0  0  0  0
  1  2  1  0  0  0
  2  3  1  0  0  0
  2  4  1  0  0  0
  1  5  1  0  0  0
  1  6  1  0  0  0
  1  7  1  0  0  0
  2  8  1  0  0  0
  9 10  1  0  0  0
 10 11  1  0  0  0
 10 12  1  0  0  0
  9 13  1  0  0  0
  9 14  1  0  0  0
  9 15  1  0  0  0
 10 16  1  0  0  0
M  END
$$$$
