


 16 14  0  0  1  0            999 V2000
    1.0894   -1.0115    2.6452 C   0  0  0  0  0  0
    2.0864   -0.3708    1.2898 S   0  0  0  0  0  0
    0.7445    0.1244    0.1962 C   0  0  0  0  0  0
    1.7734   -1.3708    3.4324 H   0  0  0  0  0  0
    0.4566   -1.8535    2.3177 H   0  0  0  0  0  0
    0.4402   -0.2293    3.0734 H   0  0  0  0  0  0
    0.1177   -0.7371   -0.0891 H   0  0  0  0  0  0
    0.1013    0.8871    0.6666 H   0  0  0  0  0  0
    1.1890    0.5539   -0.7173 H   0  0  0  0  0  0
   -0.3387    3.4648    1.4226 C   0  0  0  0  0  0
   -0.2380    2.4035    2.8772 S   0  0  0  0  0  0
    1.7622    2.4718    3.3146 S   0  0  0  0  0  0
   -1.4055    3.5568    1.1578 H   0  0  0  0  0  0
    0.2020    3.0378    0.5613 H   0  0  0  0  0  0
    0.0617    4.4725    1.6250 H   0  0  0  0  0  0
    2.1755    1.4567    2.5262 H   0  0  0  0  0  0
  1  2  1  0  0  0
  2  3  1  0  0  0
  1  4  1  0  0  0
  1  5  1  0  0  0
  1  6  1  0  0  0
  3  7  1  0  0  0
  3  8  1  0  0  0
  3  9  1  0  0  0
 10 11  1  0  0  0
 11 12  1  0  0  0
 10 13  1  0  0  0
 10 14  1  0  0  0
 10 15  1  0  0  0
 12 16  1  0  0  0
M  END
$$$$
