


 18 16  0  0  1  0            999 V2000
    0.0000    0.0000    0.0000 C   0  0  0  0  0  0
    0.4942    0.8887    1.1116 C   0  0  0  0  0  0
    0.0213    0.4467    2.4494 C   0  0  0  0  0  0
    0.7233   -0.2412    3.4127 C   0  0  0  0  0  0
    2.1109   -0.7285    3.4178 C   0  0  0  0  0  0
   -1.0843   -0.1669   -0.1144 H   0  0  0  0  0  0
    0.4943   -0.9771    0.1329 H   0  0  0  0  0  0
    0.3836    0.4656   -0.9234 H   0  0  0  0  0  0
    1.6009    0.8684    1.1244 H   0  0  0  0  0  0
    0.1799    1.8937    0.7701 H   0  0  0  0  0  0
   -1.0433    0.6557    2.6183 H   0  0  0  0  0  0
    0.2264   -0.4935    4.3587 H   0  0  0  0  0  0
    2.5868   -0.2662    4.2989 H   0  0  0  0  0  0
    2.5935   -0.3321    2.5087 H   0  0  0  0  0  0
    2.2784   -1.8180    3.4585 H   0  0  0  0  0  0
   -2.9033    2.4596    0.6651 O   0  0  0  0  0  0
   -2.1844    2.9958    1.0699 H   0  0  0  0  0  0
   -2.5282    2.1464   -0.1891 H   0  0  0  0  0  0
  1  2  1  0  0  0
  2  3  1  0  0  0
  3  4  2  0  0  0
  4  5  1  0  0  0
  1  6  1  0  0  0
  1  7  1  0  0  0
  1  8  1  0  0  0
  2  9  1  0  0  0
  2 10  1  0  0  0
  3 11  1  0  0  0
  4 12  1  0  0  0
  5 13  1  0  0  0
  5 14  1  0  0  0
  5 15  1  0  0  0
 16 17  1  0  0  0
 16 18  1  0  0  0
M  END
$$$$
