


 28 28  0  0  1  0            999 V2000
   -3.2919   -1.7535   -2.1614 C   0  0  0  0  0  0
   -4.3066   -0.6249   -2.0842 C   0  0  0  0  0  0
   -4.4658   -0.0632   -3.4805 C   0  0  0  0  0  0
   -4.8894   -1.0686   -4.4136 O   0  0  0  0  0  0
   -3.8550   -2.0585   -4.4118 C   0  0  0  0  0  0
   -3.6703   -2.6540   -3.1215 O   0  0  0  0  0  0
   -3.3388   -2.3790   -1.2493 H   0  0  0  0  0  0
   -2.2891   -1.2859   -2.1975 H   0  0  0  0  0  0
   -5.2398   -1.0770   -1.6969 H   0  0  0  0  0  0
   -3.9726    0.1363   -1.3532 H   0  0  0  0  0  0
   -3.5659    0.4599   -3.8572 H   0  0  0  0  0  0
   -5.2729    0.6875   -3.3775 H   0  0  0  0  0  0
   -2.8685   -1.6431   -4.6944 H   0  0  0  0  0  0
   -4.0969   -2.8678   -5.1273 H   0  0  0  0  0  0
    2.7999    0.8680   -4.1236 C   0  0  0  0  0  0
    1.5696    1.7235   -3.7046 C   0  0  0  0  0  0
    0.2602    0.9347   -3.9169 C   0  0  0  0  0  0
    0.5415   -0.2696   -3.3359 O   0  0  0  0  0  0
    1.6021   -1.0094   -3.7685 C   0  0  0  0  0  0
    2.7665   -0.3896   -3.4826 O   0  0  0  0  0  0
    3.7534    1.3670   -3.8640 H   0  0  0  0  0  0
    2.8369    0.6105   -5.1996 H   0  0  0  0  0  0
    1.7325    1.8738   -2.6200 H   0  0  0  0  0  0
    1.5359    2.7220   -4.1814 H   0  0  0  0  0  0
    0.1918    0.7348   -5.0036 H   0  0  0  0  0  0
   -0.6713    1.4480   -3.6098 H   0  0  0  0  0  0
    1.6109   -1.4290   -4.7928 H   0  0  0  0  0  0
    1.6056   -1.8577   -3.0572 H   0  0  0  0  0  0
  1  2  1  0  0  0
  2  3  1  0  0  0
  3  4  1  0  0  0
  4  5  1  0  0  0
  5  6  1  0  0  0
  1  6  1  0  0  0
  1  7  1  0  0  0
  1  8  1  0  0  0
  2  9  1  0  0  0
  2 10  1  0  0  0
  3 11  1  0  0  0
  3 12  1  0  0  0
  5 13  1  0  0  0
  5 14  1  0  0  0
 15 16  1  0  0  0
 16 17  1  0  0  0
 17 18  1  0  0  0
 18 19  1  0  0  0
 19 20  1  0  0  0
 15 20  1  0  0  0
 15 21  1  0  0  0
 15 22  1  0  0  0
 16 23  1  0  0  0
 16 24  1  0  0  0
 17 25  1  0  0  0
 17 26  1  0  0  0
 19 27  1  0  0  0
 19 28  1  0  0  0
M  END
$$$$
