


 28 28  0  0  1  0            999 V2000
    0.4813   -1.1153    6.2749 C   0  0  0  0  0  0
    0.5734   -2.2424    5.1871 C   0  0  0  0  0  0
    1.4671   -3.3635    5.5805 C   0  0  0  0  0  0
    1.2982   -3.7035    6.9087 O   0  0  0  0  0  0
    1.4308   -2.5720    7.7855 C   0  0  0  0  0  0
    0.3665   -1.6414    7.5403 O   0  0  0  0  0  0
   -0.3943   -0.4458    6.1733 H   0  0  0  0  0  0
    1.3891   -0.4820    6.2918 H   0  0  0  0  0  0
   -0.4536   -2.6549    5.2123 H   0  0  0  0  0  0
    0.7872   -1.9351    4.1453 H   0  0  0  0  0  0
    2.5263   -3.0707    5.4477 H   0  0  0  0  0  0
    1.2796   -4.2478    4.9415 H   0  0  0  0  0  0
    2.4362   -2.1237    7.6689 H   0  0  0  0  0  0
    1.3605   -2.9781    8.8129 H   0  0  0  0  0  0
   -0.3277   -3.0839   -3.8003 C   0  0  0  0  0  0
   -0.5501   -2.6343   -5.2470 C   0  0  0  0  0  0
   -1.1592   -3.8451   -5.9825 C   0  0  0  0  0  0
   -2.3763   -4.2774   -5.2902 O   0  0  0  0  0  0
   -2.1230   -4.6860   -3.9761 C   0  0  0  0  0  0
   -1.5783   -3.5951   -3.2579 O   0  0  0  0  0  0
   -0.0175   -2.2352   -3.1607 H   0  0  0  0  0  0
    0.3898   -3.9103   -3.6341 H   0  0  0  0  0  0
   -1.2342   -1.7813   -5.0741 H   0  0  0  0  0  0
    0.3867   -2.2322   -5.6785 H   0  0  0  0  0  0
   -0.3374   -4.5772   -6.1012 H   0  0  0  0  0  0
   -1.4805   -3.5328   -6.9948 H   0  0  0  0  0  0
   -1.3842   -5.5013   -4.0981 H   0  0  0  0  0  0
   -2.9913   -5.0980   -3.4266 H   0  0  0  0  0  0
  1  2  1  0  0  0
  2  3  1  0  0  0
  3  4  1  0  0  0
  4  5  1  0  0  0
  5  6  1  0  0  0
  1  6  1  0  0  0
  1  7  1  0  0  0
  1  8  1  0  0  0
  2  9  1  0  0  0
  2 10  1  0  0  0
  3 11  1  0  0  0
  3 12  1  0  0  0
  5 13  1  0  0  0
  5 14  1  0  0  0
 15 16  1  0  0  0
 16 17  1  0  0  0
 17 18  1  0  0  0
 18 19  1  0  0  0
 19 20  1  0  0  0
 15 20  1  0  0  0
 15 21  1  0  0  0
 15 22  1  0  0  0
 16 23  1  0  0  0
 16 24  1  0  0  0
 17 25  1  0  0  0
 17 26  1  0  0  0
 19 27  1  0  0  0
 19 28  1  0  0  0
M  END
$$$$
