


 28 28  0  0  1  0            999 V2000
   -3.5731    1.0943   -2.4835 C   0  0  0  0  0  0
   -4.1754    0.3793   -1.2748 C   0  0  0  0  0  0
   -4.1999    1.4787   -0.1189 C   0  0  0  0  0  0
   -4.8255    2.6899   -0.5832 O   0  0  0  0  0  0
   -4.1976    3.1906   -1.6524 C   0  0  0  0  0  0
   -4.2505    2.3261   -2.7342 O   0  0  0  0  0  0
   -3.7249    0.4033   -3.3349 H   0  0  0  0  0  0
   -2.4824    1.2216   -2.3436 H   0  0  0  0  0  0
   -5.1993    0.0709   -1.5611 H   0  0  0  0  0  0
   -3.6086   -0.5355   -1.0153 H   0  0  0  0  0  0
   -3.1220    1.6431    0.0721 H   0  0  0  0  0  0
   -4.6382    1.0275    0.7921 H   0  0  0  0  0  0
   -3.1788    3.5318   -1.3860 H   0  0  0  0  0  0
   -4.7603    4.0687   -2.0237 H   0  0  0  0  0  0
    5.5867    1.8887   -2.3908 C   0  0  0  0  0  0
    4.2636    1.9137   -1.6009 C   0  0  0  0  0  0
    4.1021    0.6122   -0.7471 C   0  0  0  0  0  0
    5.3805    0.6425    0.0034 O   0  0  0  0  0  0
    6.4579    0.6036   -0.7362 C   0  0  0  0  0  0
    6.6601    1.7151   -1.4605 O   0  0  0  0  0  0
    5.6219    2.9169   -2.7996 H   0  0  0  0  0  0
    5.7323    1.1862   -3.2339 H   0  0  0  0  0  0
    4.2085    2.7425   -0.8692 H   0  0  0  0  0  0
    3.3841    1.9948   -2.2682 H   0  0  0  0  0  0
    4.1556   -0.3671   -1.2605 H   0  0  0  0  0  0
    3.1711    0.6280   -0.1484 H   0  0  0  0  0  0
    6.4356   -0.2585   -1.4302 H   0  0  0  0  0  0
    7.3511    0.4937   -0.0915 H   0  0  0  0  0  0
  1  2  1  0  0  0
  2  3  1  0  0  0
  3  4  1  0  0  0
  4  5  1  0  0  0
  5  6  1  0  0  0
  1  6  1  0  0  0
  1  7  1  0  0  0
  1  8  1  0  0  0
  2  9  1  0  0  0
  2 10  1  0  0  0
  3 11  1  0  0  0
  3 12  1  0  0  0
  5 13  1  0  0  0
  5 14  1  0  0  0
 15 16  1  0  0  0
 16 17  1  0  0  0
 17 18  1  0  0  0
 18 19  1  0  0  0
 19 20  1  0  0  0
 15 20  1  0  0  0
 15 21  1  0  0  0
 15 22  1  0  0  0
 16 23  1  0  0  0
 16 24  1  0  0  0
 17 25  1  0  0  0
 17 26  1  0  0  0
 19 27  1  0  0  0
 19 28  1  0  0  0
M  END
$$$$
