


 28 28  0  0  1  0            999 V2000
  -14.8095   -0.4596    0.5781 C   0  0  0  0  0  0
  -14.0053   -1.7690    0.6930 C   0  0  0  0  0  0
  -14.9105   -3.0241    0.7523 C   0  0  0  0  0  0
  -15.7875   -2.9843   -0.3536 O   0  0  0  0  0  0
  -16.4926   -1.7666   -0.4310 C   0  0  0  0  0  0
  -15.6280   -0.6653   -0.6235 O   0  0  0  0  0  0
  -14.1466    0.4159    0.4389 H   0  0  0  0  0  0
  -15.4267   -0.2748    1.4783 H   0  0  0  0  0  0
  -13.2810   -1.8068   -0.1433 H   0  0  0  0  0  0
  -13.4282   -1.7550    1.6376 H   0  0  0  0  0  0
  -15.5674   -2.9967    1.6428 H   0  0  0  0  0  0
  -14.3771   -3.9941    0.7572 H   0  0  0  0  0  0
  -17.0683   -1.6609    0.5086 H   0  0  0  0  0  0
  -17.2180   -1.8904   -1.2580 H   0  0  0  0  0  0
  -15.6074    2.9446   -1.2089 C   0  0  0  0  0  0
  -14.4305    2.9069   -0.2475 C   0  0  0  0  0  0
  -14.8061    2.8178    1.1764 C   0  0  0  0  0  0
  -15.4794    1.5347    1.1541 O   0  0  0  0  0  0
  -16.6161    1.4828    0.3392 C   0  0  0  0  0  0
  -16.3693    1.7060   -1.0334 O   0  0  0  0  0  0
  -15.3403    2.9999   -2.2817 H   0  0  0  0  0  0
  -16.1897    3.8525   -0.9597 H   0  0  0  0  0  0
  -13.8548    1.9784   -0.4262 H   0  0  0  0  0  0
  -13.7407    3.7620   -0.3831 H   0  0  0  0  0  0
  -15.4423    3.6424    1.5514 H   0  0  0  0  0  0
  -13.9498    2.7113    1.8699 H   0  0  0  0  0  0
  -17.3568    2.2536    0.6269 H   0  0  0  0  0  0
  -17.0834    0.4917    0.4970 H   0  0  0  0  0  0
  1  2  1  0  0  0
  2  3  1  0  0  0
  3  4  1  0  0  0
  4  5  1  0  0  0
  5  6  1  0  0  0
  1  6  1  0  0  0
  1  7  1  0  0  0
  1  8  1  0  0  0
  2  9  1  0  0  0
  2 10  1  0  0  0
  3 11  1  0  0  0
  3 12  1  0  0  0
  5 13  1  0  0  0
  5 14  1  0  0  0
 15 16  1  0  0  0
 16 17  1  0  0  0
 17 18  1  0  0  0
 18 19  1  0  0  0
 19 20  1  0  0  0
 15 20  1  0  0  0
 15 21  1  0  0  0
 15 22  1  0  0  0
 16 23  1  0  0  0
 16 24  1  0  0  0
 17 25  1  0  0  0
 17 26  1  0  0  0
 19 27  1  0  0  0
 19 28  1  0  0  0
M  END
$$$$
