


 28 28  0  0  1  0            999 V2000
    6.3296    8.3618  -13.6216 C   0  0  0  0  0  0
    5.6226    7.7389  -14.8228 C   0  0  0  0  0  0
    5.5418    6.2192  -14.6804 C   0  0  0  0  0  0
    4.8990    5.9744  -13.4321 O   0  0  0  0  0  0
    5.5417    6.5979  -12.3230 C   0  0  0  0  0  0
    5.4996    7.9961  -12.5123 O   0  0  0  0  0  0
    6.1993    9.4582  -13.7017 H   0  0  0  0  0  0
    7.4151    8.1482  -13.6612 H   0  0  0  0  0  0
    4.6000    8.1352  -14.9737 H   0  0  0  0  0  0
    6.2156    7.9854  -15.7244 H   0  0  0  0  0  0
    6.5580    5.7873  -14.6024 H   0  0  0  0  0  0
    4.9931    5.6510  -15.4560 H   0  0  0  0  0  0
    6.5846    6.2285  -12.2859 H   0  0  0  0  0  0
    5.1050    6.4749  -11.3132 H   0  0  0  0  0  0
    9.5318    6.6163  -12.6904 C   0  0  0  0  0  0
   10.4631    5.5755  -13.3370 C   0  0  0  0  0  0
   10.9727    5.9800  -14.6955 C   0  0  0  0  0  0
   11.4951    7.3372  -14.5777 O   0  0  0  0  0  0
   10.5438    8.2460  -14.0528 C   0  0  0  0  0  0
   10.1628    7.9201  -12.7686 O   0  0  0  0  0  0
    9.2118    6.3580  -11.6626 H   0  0  0  0  0  0
    8.6294    6.6252  -13.3316 H   0  0  0  0  0  0
   11.2873    5.3320  -12.6393 H   0  0  0  0  0  0
    9.8854    4.6476  -13.5124 H   0  0  0  0  0  0
   10.1531    5.9585  -15.4393 H   0  0  0  0  0  0
   11.7371    5.2460  -15.0157 H   0  0  0  0  0  0
    9.7809    8.2622  -14.8548 H   0  0  0  0  0  0
   11.0403    9.2354  -14.0406 H   0  0  0  0  0  0
  1  2  1  0  0  0
  2  3  1  0  0  0
  3  4  1  0  0  0
  4  5  1  0  0  0
  5  6  1  0  0  0
  1  6  1  0  0  0
  1  7  1  0  0  0
  1  8  1  0  0  0
  2  9  1  0  0  0
  2 10  1  0  0  0
  3 11  1  0  0  0
  3 12  1  0  0  0
  5 13  1  0  0  0
  5 14  1  0  0  0
 15 16  1  0  0  0
 16 17  1  0  0  0
 17 18  1  0  0  0
 18 19  1  0  0  0
 19 20  1  0  0  0
 15 20  1  0  0  0
 15 21  1  0  0  0
 15 22  1  0  0  0
 16 23  1  0  0  0
 16 24  1  0  0  0
 17 25  1  0  0  0
 17 26  1  0  0  0
 19 27  1  0  0  0
 19 28  1  0  0  0
M  END
$$$$
