


 28 28  0  0  1  0            999 V2000
   -1.2364   -5.8174   -3.6384 C   0  0  0  0  0  0
   -1.2154   -7.3866   -3.4258 C   0  0  0  0  0  0
   -0.7128   -7.7500   -1.9821 C   0  0  0  0  0  0
   -1.3644   -6.8965   -1.0451 O   0  0  0  0  0  0
   -1.1343   -5.5715   -1.3545 C   0  0  0  0  0  0
   -1.7501   -5.1871   -2.5116 O   0  0  0  0  0  0
   -1.8667   -5.4634   -4.4769 H   0  0  0  0  0  0
   -0.2370   -5.3545   -3.7499 H   0  0  0  0  0  0
   -2.2583   -7.7560   -3.4604 H   0  0  0  0  0  0
   -0.6187   -7.9966   -4.1309 H   0  0  0  0  0  0
    0.3758   -7.5513   -1.9519 H   0  0  0  0  0  0
   -0.8700   -8.8076   -1.6952 H   0  0  0  0  0  0
   -0.0298   -5.5197   -1.3012 H   0  0  0  0  0  0
   -1.5407   -4.9069   -0.5680 H   0  0  0  0  0  0
   -4.9763   -0.9088   -2.3650 C   0  0  0  0  0  0
   -5.0587   -2.2399   -3.0654 C   0  0  0  0  0  0
   -6.4229   -2.0547   -3.7951 C   0  0  0  0  0  0
   -6.3284   -0.9121   -4.6528 O   0  0  0  0  0  0
   -6.0296    0.2835   -4.0554 C   0  0  0  0  0  0
   -4.8454    0.1404   -3.2997 O   0  0  0  0  0  0
   -4.0637   -0.8108   -1.7461 H   0  0  0  0  0  0
   -5.8483   -0.7083   -1.7132 H   0  0  0  0  0  0
   -4.2485   -2.4620   -3.7863 H   0  0  0  0  0  0
   -5.0762   -3.0555   -2.3171 H   0  0  0  0  0  0
   -7.2906   -1.9961   -3.1102 H   0  0  0  0  0  0
   -6.5982   -2.8993   -4.4890 H   0  0  0  0  0  0
   -6.8148    0.5533   -3.3232 H   0  0  0  0  0  0
   -6.0445    1.0434   -4.8602 H   0  0  0  0  0  0
  1  2  1  0  0  0
  2  3  1  0  0  0
  3  4  1  0  0  0
  4  5  1  0  0  0
  5  6  1  0  0  0
  1  6  1  0  0  0
  1  7  1  0  0  0
  1  8  1  0  0  0
  2  9  1  0  0  0
  2 10  1  0  0  0
  3 11  1  0  0  0
  3 12  1  0  0  0
  5 13  1  0  0  0
  5 14  1  0  0  0
 15 16  1  0  0  0
 16 17  1  0  0  0
 17 18  1  0  0  0
 18 19  1  0  0  0
 19 20  1  0  0  0
 15 20  1  0  0  0
 15 21  1  0  0  0
 15 22  1  0  0  0
 16 23  1  0  0  0
 16 24  1  0  0  0
 17 25  1  0  0  0
 17 26  1  0  0  0
 19 27  1  0  0  0
 19 28  1  0  0  0
M  END
$$$$
