


 26 25  0  0  1  0            999 V2000
    1.7234    2.4431    3.9484 C   0  0  0  0  0  0
    1.8467    3.3618    2.7310 C   0  0  0  0  0  0
    0.5728    3.3234    1.8842 C   0  0  0  0  0  0
   -0.6541    3.6870    2.7231 C   0  0  0  0  0  0
   -0.7774    2.7682    3.9405 C   0  0  0  0  0  0
    0.4965    2.8066    4.7873 C   0  0  0  0  0  0
    2.6398    2.5037    4.5664 H   0  0  0  0  0  0
    1.6215    1.3975    3.5992 H   0  0  0  0  0  0
    2.0133    4.3990    3.0804 H   0  0  0  0  0  0
    2.7209    3.0685    2.1186 H   0  0  0  0  0  0
    0.4411    2.3006    1.4815 H   0  0  0  0  0  0
    0.6654    4.0143    1.0242 H   0  0  0  0  0  0
   -1.5705    3.6264    2.1050 H   0  0  0  0  0  0
   -0.5522    4.7325    3.0723 H   0  0  0  0  0  0
   -0.9441    1.7311    3.5911 H   0  0  0  0  0  0
   -1.6516    3.0616    4.5529 H   0  0  0  0  0  0
    0.4039    2.1157    5.6473 H   0  0  0  0  0  0
    0.6281    3.8294    5.1899 H   0  0  0  0  0  0
    4.4689    0.0653   -1.8299 C   0  0  0  0  0  0
    5.1781   -0.5104   -0.7265 O   0  0  0  0  0  0
    4.4304   -1.3106    0.0516 C   0  0  0  0  0  0
    3.2608   -1.5615   -0.1120 O   0  0  0  0  0  0
    5.1855    0.6939   -2.3848 H   0  0  0  0  0  0
    3.6310    0.6993   -1.4945 H   0  0  0  0  0  0
    4.0750   -0.7060   -2.5130 H   0  0  0  0  0  0
    5.0600   -1.7068    0.8728 H   0  0  0  0  0  0
  1  2  1  0  0  0
  2  3  1  0  0  0
  3  4  1  0  0  0
  4  5  1  0  0  0
  5  6  1  0  0  0
  1  6  1  0  0  0
  1  7  1  0  0  0
  1  8  1  0  0  0
  2  9  1  0  0  0
  2 10  1  0  0  0
  3 11  1  0  0  0
  3 12  1  0  0  0
  4 13  1  0  0  0
  4 14  1  0  0  0
  5 15  1  0  0  0
  5 16  1  0  0  0
  6 17  1  0  0  0
  6 18  1  0  0  0
 19 20  1  0  0  0
 20 21  1  0  0  0
 21 22  2  0  0  0
 19 23  1  0  0  0
 19 24  1  0  0  0
 19 25  1  0  0  0
 21 26  1  0  0  0
M  END
$$$$
