


 18 16  0  0  1  0            999 V2000
    0.6581    1.5031    4.9160 C   0  0  0  0  0  0
    0.5053    1.9510    3.1731 S   0  0  0  0  0  0
    1.6185    0.5083    2.2598 S   0  0  0  0  0  0
    0.4308   -0.8423    2.0963 C   0  0  0  0  0  0
    0.1111    2.2615    5.5011 H   0  0  0  0  0  0
    1.7122    1.5012    5.2407 H   0  0  0  0  0  0
    0.2224    0.5125    5.1295 H   0  0  0  0  0  0
    0.0843   -1.2110    3.0764 H   0  0  0  0  0  0
   -0.4484   -0.5365    1.5046 H   0  0  0  0  0  0
    0.9394   -1.6674    1.5698 H   0  0  0  0  0  0
    3.8512    5.6754   -1.1930 C   0  0  0  0  0  0
    4.5395    5.4824    0.1220 N   0  0  0  0  0  0
    4.9111    6.3865    0.4770 H   0  0  0  0  0  0
    3.8788    5.1008    0.8287 H   0  0  0  0  0  0
    5.3340    4.8182    0.0254 H   0  0  0  0  0  0
    3.0097    6.3804   -1.0852 H   0  0  0  0  0  0
    3.4591    4.7139   -1.5650 H   0  0  0  0  0  0
    4.5559    6.0802   -1.9387 H   0  0  0  0  0  0
  1  2  1  0  0  0
  2  3  1  0  0  0
  3  4  1  0  0  0
  1  5  1  0  0  0
  1  6  1  0  0  0
  1  7  1  0  0  0
  4  8  1  0  0  0
  4  9  1  0  0  0
  4 10  1  0  0  0
 11 12  1  0  0  0
 12 13  1  0  0  0
 12 14  1  0  0  0
 12 15  1  0  0  0
 11 16  1  0  0  0
 11 17  1  0  0  0
 11 18  1  0  0  0
M  CHG  1  12   1
M  END
$$$$
