


 24 23  0  0  1  0            999 V2000
    5.1221   -1.9662    5.6461 C   0  0  0  0  0  0
    4.5689   -2.6229    4.3806 C   0  0  0  0  0  0
    3.1938   -3.1150    4.4792 N   0  0  0  0  0  0
    4.5037   -1.0960    5.9236 H   0  0  0  0  0  0
    6.1588   -1.6248    5.4873 H   0  0  0  0  0  0
    5.1126   -2.6854    6.4822 H   0  0  0  0  0  0
    4.6010   -1.8965    3.5458 H   0  0  0  0  0  0
    5.2087   -3.4827    4.1034 H   0  0  0  0  0  0
    2.5653   -2.3437    4.7295 H   0  0  0  0  0  0
    3.1226   -3.7987    5.2409 H   0  0  0  0  0  0
   -1.4777    2.4835    2.6351 S   0  0  0  0  0  0
   -0.4510    3.9587    2.4267 C   0  0  0  0  0  0
    0.8876    3.6730    1.7613 C   0  0  0  0  0  0
    0.7357    3.1800    0.0271 S   0  0  0  0  0  0
   -0.2910    1.7048    0.2355 C   0  0  0  0  0  0
   -1.6296    1.9905    0.9008 C   0  0  0  0  0  0
   -1.0097    4.7264    1.8574 H   0  0  0  0  0  0
   -0.2949    4.3470    3.4515 H   0  0  0  0  0  0
    1.4412    2.8970    2.3241 H   0  0  0  0  0  0
    1.5115    4.5873    1.7463 H   0  0  0  0  0  0
    0.2677    0.9372    0.8048 H   0  0  0  0  0  0
   -0.4470    1.3165   -0.7894 H   0  0  0  0  0  0
   -2.2535    1.0762    0.9158 H   0  0  0  0  0  0
   -2.1832    2.7665    0.3381 H   0  0  0  0  0  0
  1  2  1  0  0  0
  2  3  1  0  0  0
  1  4  1  0  0  0
  1  5  1  0  0  0
  1  6  1  0  0  0
  2  7  1  0  0  0
  2  8  1  0  0  0
  3  9  1  0  0  0
  3 10  1  0  0  0
 11 12  1  0  0  0
 12 13  1  0  0  0
 13 14  1  0  0  0
 14 15  1  0  0  0
 15 16  1  0  0  0
 11 16  1  0  0  0
 12 17  1  0  0  0
 12 18  1  0  0  0
 13 19  1  0  0  0
 13 20  1  0  0  0
 15 21  1  0  0  0
 15 22  1  0  0  0
 16 23  1  0  0  0
 16 24  1  0  0  0
M  END
$$$$
