


 21 20  0  0  1  0            999 V2000
    3.7890    2.2905    3.0851 Br  0  0  0  0  0  0
    2.8829    2.3438    1.4321 C   0  0  0  0  0  0
    3.0773    1.3128    0.5142 C   0  0  0  0  0  0
    2.4030    1.3600   -0.7064 C   0  0  0  0  0  0
    1.5486    2.4222   -1.0022 C   0  0  0  0  0  0
    1.3666    3.4449   -0.0712 C   0  0  0  0  0  0
    2.0331    3.4132    1.1542 C   0  0  0  0  0  0
    3.7517    0.4806    0.7553 H   0  0  0  0  0  0
    2.5510    0.5516   -1.4346 H   0  0  0  0  0  0
    1.0210    2.4532   -1.9647 H   0  0  0  0  0  0
    0.6955    4.2840   -0.2973 H   0  0  0  0  0  0
    1.8958    4.2139    1.8929 H   0  0  0  0  0  0
    0.7110    1.4727    3.5511 C   0  0  0  0  0  0
    1.1294    0.0135    2.5829 S   0  0  0  0  0  0
    0.1699    0.3998    1.1092 C   0  0  0  0  0  0
    1.2313    1.4000    4.5209 H   0  0  0  0  0  0
   -0.3742    1.5354    3.7379 H   0  0  0  0  0  0
    1.0352    2.3984    3.0464 H   0  0  0  0  0  0
   -0.9061    0.4810    1.3381 H   0  0  0  0  0  0
    0.5033    1.3439    0.6466 H   0  0  0  0  0  0
    0.3144   -0.4180    0.3832 H   0  0  0  0  0  0
  1  2  1  0  0  0
  2  3  1  0  0  0
  3  4  2  0  0  0
  4  5  1  0  0  0
  5  6  2  0  0  0
  6  7  1  0  0  0
  2  7  2  0  0  0
  3  8  1  0  0  0
  4  9  1  0  0  0
  5 10  1  0  0  0
  6 11  1  0  0  0
  7 12  1  0  0  0
 13 14  1  0  0  0
 14 15  1  0  0  0
 13 16  1  0  0  0
 13 17  1  0  0  0
 13 18  1  0  0  0
 15 19  1  0  0  0
 15 20  1  0  0  0
 15 21  1  0  0  0
M  END
$$$$
