


 20 18  0  0  1  0            999 V2000
    3.4019    1.8439    4.5588 C   0  0  0  0  0  0
    2.2455    1.9382    3.5735 C   0  0  0  0  0  0
    2.6238    1.2363    1.9380 S   0  0  0  0  0  0
    3.7132    0.7935    4.6868 H   0  0  0  0  0  0
    3.0985    2.2431    5.5412 H   0  0  0  0  0  0
    4.2658    2.4249    4.1946 H   0  0  0  0  0  0
    1.3800    1.3461    3.9282 H   0  0  0  0  0  0
    1.9085    2.9852    3.4489 H   0  0  0  0  0  0
    3.6410    2.0752    1.6482 H   0  0  0  0  0  0
   -0.5682    1.2381    0.4952 C   0  0  0  0  0  0
    0.6521    1.9823    0.0722 N   0  0  0  0  0  0
    0.4211    2.9953   -0.0066 H   0  0  0  0  0  0
    1.3819    1.8838    0.8094 H   0  0  0  0  0  0
    1.2084    1.5092   -1.2274 C   0  0  0  0  0  0
   -0.9463    1.6187    1.4589 H   0  0  0  0  0  0
   -0.3374    0.1653    0.6068 H   0  0  0  0  0  0
   -1.3615    1.3502   -0.2629 H   0  0  0  0  0  0
    1.4811    0.4429   -1.1563 H   0  0  0  0  0  0
    0.4570    1.6277   -2.0261 H   0  0  0  0  0  0
    2.1081    2.0849   -1.5025 H   0  0  0  0  0  0
  1  2  1  0  0  0
  2  3  1  0  0  0
  1  4  1  0  0  0
  1  5  1  0  0  0
  1  6  1  0  0  0
  2  7  1  0  0  0
  2  8  1  0  0  0
  3  9  1  0  0  0
 10 11  1  0  0  0
 11 12  1  0  0  0
 11 13  1  0  0  0
 11 14  1  0  0  0
 10 15  1  0  0  0
 10 16  1  0  0  0
 10 17  1  0  0  0
 14 18  1  0  0  0
 14 19  1  0  0  0
 14 20  1  0  0  0
M  CHG  1  11   1
M  END
$$$$
