


 11  9  0  0  1  0            999 V2000
    0.7499    0.8559   -0.4625 C   0  0  0  0  0  0
    1.5189   -0.2103   -0.2358 C   0  0  0  0  0  0
    0.4939    1.1636   -1.4828 H   0  0  0  0  0  0
    0.3522    1.4544    0.3650 H   0  0  0  0  0  0
    1.9166   -0.8088   -1.0633 H   0  0  0  0  0  0
    1.7749   -0.5180    0.7845 H   0  0  0  0  0  0
    2.9872    2.1622    2.2876 C   0  0  0  0  0  0
    1.8610    1.5521    2.8046 F   0  0  0  0  0  0
    2.7180    2.7976    1.4272 H   0  0  0  0  0  0
    3.7137    1.4036    1.9510 H   0  0  0  0  0  0
    3.4673    2.7933    3.0544 H   0  0  0  0  0  0
  1  2  2  0  0  0
  1  3  1  0  0  0
  1  4  1  0  0  0
  2  5  1  0  0  0
  2  6  1  0  0  0
  7  8  1  0  0  0
  7  9  1  0  0  0
  7 10  1  0  0  0
  7 11  1  0  0  0
M  END
$$$$
