


  4  2  0  0  1  0            999 V2000
   -0.5344    0.8282    2.8048 O   0  0  0  0  0  0
   -1.2430    0.2607    2.4253 H   0  0  0  0  0  0
   -0.9100    1.1613    3.6511 H   0  0  0  0  0  0
    0.8697   -1.0280   -3.7665 Kr  0  0  0  0  0  0
  1  2  1  0  0  0
  1  3  1  0  0  0
M  END
$$$$
