


  4  2  0  0  1  0            999 V2000
   -0.1103   -2.4370    5.0964 O   0  0  0  0  0  0
    0.4026   -1.6633    4.7702 H   0  0  0  0  0  0
    0.0272   -2.4327    6.0708 H   0  0  0  0  0  0
    0.0000    0.0000    0.0000 Kr  0  0  0  0  0  0
  1  2  1  0  0  0
  1  3  1  0  0  0
M  END
$$$$
