


  4  2  0  0  1  0            999 V2000
    1.4467   -1.1749   -0.6075 O   0  0  0  0  0  0
    1.5441   -1.3364   -1.5732 H   0  0  0  0  0  0
    2.1773   -1.6890   -0.1951 H   0  0  0  0  0  0
   -0.1474    0.1198    0.0627 Mg  0  0  0  0  0  0
  1  2  1  0  0  0
  1  3  1  0  0  0
M  CHG  1   4   2
M  END
$$$$
