


  4  2  0  0  1  0            999 V2000
   -0.2636   -1.8397   -0.3698 O   0  0  0  0  0  0
   -0.8394   -2.4955    0.0849 H   0  0  0  0  0  0
    0.3564   -2.3839   -0.9061 H   0  0  0  0  0  0
   -0.0548   -0.3885   -0.0778 Mg  0  0  0  0  0  0
  1  2  1  0  0  0
  1  3  1  0  0  0
M  CHG  1   4   2
M  END
$$$$
