


 18 16  0  0  1  0            999 V2000
   -3.9012   -4.1689    1.6717 C   0  0  0  0  0  0
   -3.3973   -2.7669    1.1749 C   0  0  0  0  0  0
   -3.3382   -1.6880    1.9438 C   0  0  0  0  0  0
   -4.2142   -4.0125    2.7177 H   0  0  0  0  0  0
   -3.1336   -4.9606    1.6487 H   0  0  0  0  0  0
   -4.7747   -4.5088    1.0901 H   0  0  0  0  0  0
   -3.1080   -2.6589    0.1212 H   0  0  0  0  0  0
   -2.8603   -0.7520    1.6326 H   0  0  0  0  0  0
   -3.7155   -1.7505    2.9708 H   0  0  0  0  0  0
    0.6560   -3.4434    2.3087 C   0  0  0  0  0  0
    1.4771   -3.8358    1.1593 C   0  0  0  0  0  0
    1.2317   -4.7358    0.2419 C   0  0  0  0  0  0
   -0.3514   -3.8926    2.3062 H   0  0  0  0  0  0
    0.5541   -2.3516    2.4272 H   0  0  0  0  0  0
    1.2160   -3.8403    3.1722 H   0  0  0  0  0  0
    2.4093   -3.2585    1.1015 H   0  0  0  0  0  0
    1.8709   -5.0484   -0.5917 H   0  0  0  0  0  0
    0.2712   -5.2484    0.3675 H   0  0  0  0  0  0
  1  2  1  0  0  0
  2  3  2  0  0  0
  1  4  1  0  0  0
  1  5  1  0  0  0
  1  6  1  0  0  0
  2  7  1  0  0  0
  3  8  1  0  0  0
  3  9  1  0  0  0
 10 11  1  0  0  0
 11 12  2  0  0  0
 10 13  1  0  0  0
 10 14  1  0  0  0
 10 15  1  0  0  0
 11 16  1  0  0  0
 12 17  1  0  0  0
 12 18  1  0  0  0
M  END
$$$$
