


 18 16  0  0  1  0            999 V2000
   -1.5278   -5.0987   -0.8273 C   0  0  0  0  0  0
   -1.8613   -5.0806    0.6680 C   0  0  0  0  0  0
   -1.2619   -4.2413    1.5276 C   0  0  0  0  0  0
   -0.9710   -6.0477   -0.9046 H   0  0  0  0  0  0
   -0.8620   -4.2743   -1.1334 H   0  0  0  0  0  0
   -2.3841   -5.1356   -1.5215 H   0  0  0  0  0  0
   -2.6373   -5.8237    0.8943 H   0  0  0  0  0  0
   -1.5124   -4.2985    2.5930 H   0  0  0  0  0  0
   -0.5306   -3.4867    1.2160 H   0  0  0  0  0  0
    1.7280    0.0985    4.1105 C   0  0  0  0  0  0
    1.3372   -1.3653    3.8022 C   0  0  0  0  0  0
    1.9620   -2.1391    2.8287 C   0  0  0  0  0  0
    1.8689    0.2382    5.1955 H   0  0  0  0  0  0
    0.9144    0.7624    3.7730 H   0  0  0  0  0  0
    2.6579    0.3913    3.5944 H   0  0  0  0  0  0
    0.4995   -1.8384    4.3314 H   0  0  0  0  0  0
    1.6611   -3.1705    2.6118 H   0  0  0  0  0  0
    2.8222   -1.7340    2.2836 H   0  0  0  0  0  0
  1  2  1  0  0  0
  2  3  2  0  0  0
  1  4  1  0  0  0
  1  5  1  0  0  0
  1  6  1  0  0  0
  2  7  1  0  0  0
  3  8  1  0  0  0
  3  9  1  0  0  0
 10 11  1  0  0  0
 11 12  2  0  0  0
 10 13  1  0  0  0
 10 14  1  0  0  0
 10 15  1  0  0  0
 11 16  1  0  0  0
 12 17  1  0  0  0
 12 18  1  0  0  0
M  END
$$$$
