


 18 16  0  0  1  0            999 V2000
    0.9662   -2.0470  -14.2709 C   0  0  0  0  0  0
    0.8621   -2.0231  -12.7743 C   0  0  0  0  0  0
    1.6811   -1.4194  -11.9538 C   0  0  0  0  0  0
    1.3809   -2.9695  -14.7109 H   0  0  0  0  0  0
    1.6479   -1.2107  -14.4999 H   0  0  0  0  0  0
   -0.0113   -1.8425  -14.7391 H   0  0  0  0  0  0
    0.0368   -2.5770  -12.3076 H   0  0  0  0  0  0
    1.4509   -1.4450  -10.8826 H   0  0  0  0  0  0
    2.5112   -0.7832  -12.2815 H   0  0  0  0  0  0
    2.5186    0.3480  -16.0228 C   0  0  0  0  0  0
    1.4483    1.4752  -15.8727 C   0  0  0  0  0  0
    0.2765    1.4029  -16.5977 C   0  0  0  0  0  0
    3.5382    0.7641  -16.0859 H   0  0  0  0  0  0
    2.3341   -0.2682  -16.9188 H   0  0  0  0  0  0
    2.4573   -0.2993  -15.1319 H   0  0  0  0  0  0
    1.5286    2.2398  -15.0888 H   0  0  0  0  0  0
   -0.5647    2.1020  -16.5281 H   0  0  0  0  0  0
    0.1873    0.5668  -17.3006 H   0  0  0  0  0  0
  1  2  1  0  0  0
  2  3  2  0  0  0
  1  4  1  0  0  0
  1  5  1  0  0  0
  1  6  1  0  0  0
  2  7  1  0  0  0
  3  8  1  0  0  0
  3  9  1  0  0  0
 10 11  1  0  0  0
 11 12  2  0  0  0
 10 13  1  0  0  0
 10 14  1  0  0  0
 10 15  1  0  0  0
 11 16  1  0  0  0
 12 17  1  0  0  0
 12 18  1  0  0  0
M  END
$$$$
