


 15 13  0  0  1  0            999 V2000
   -2.0296    3.6351   -1.8894 O   0  0  0  0  0  0
   -1.4947    3.4880   -2.7021 H   0  0  0  0  0  0
   -1.4245    4.1115   -1.2770 H   0  0  0  0  0  0
    0.0000    0.0000    0.0000 O   0  0  0  0  0  0
   -0.7136   -0.7091    1.0011 C   0  0  0  0  0  0
   -0.4254   -2.1705    0.6973 C   0  0  0  0  0  0
   -1.0743   -3.1142    1.7684 C   0  0  0  0  0  0
   -0.4413   -3.6574    2.6307 O   0  0  0  0  0  0
   -2.4167   -3.3232    1.6089 O   0  0  0  0  0  0
    0.1119    0.8785    0.4196 H   0  0  0  0  0  0
   -0.5919   -0.4437    2.0689 H   0  0  0  0  0  0
   -1.7778   -0.5583    0.7359 H   0  0  0  0  0  0
   -0.8813   -2.4241   -0.2790 H   0  0  0  0  0  0
    0.6634   -2.3539    0.6181 H   0  0  0  0  0  0
   -2.9576   -3.8231    2.2792 H   0  0  0  0  0  0
  1  2  1  0  0  0
  1  3  1  0  0  0
  4  5  1  0  0  0
  5  6  1  0  0  0
  6  7  1  0  0  0
  7  8  2  0  0  0
  7  9  1  0  0  0
  4 10  1  0  0  0
  5 11  1  0  0  0
  5 12  1  0  0  0
  6 13  1  0  0  0
  6 14  1  0  0  0
  9 15  1  0  0  0
M  END
$$$$
