


 12 10  0  0  1  0            999 V2000
    0.0000    0.0000    0.0000 C   0  0  0  0  0  0
    0.3853    1.3520   -0.3478 C   0  0  0  0  0  0
    0.3316    1.7177   -1.5113 O   0  0  0  0  0  0
    0.5571    2.1848    0.6720 N   0  0  0  0  0  0
    0.8877   -0.6215   -0.2059 H   0  0  0  0  0  0
   -0.8022   -0.2897   -0.6995 H   0  0  0  0  0  0
   -0.3405   -0.2030    1.0293 H   0  0  0  0  0  0
    0.6862    1.8129    1.6162 H   0  0  0  0  0  0
    0.7079    3.1800    0.4893 H   0  0  0  0  0  0
    4.6634    1.8794   -2.0112 O   0  0  0  0  0  0
    4.8469    1.1117   -1.4236 H   0  0  0  0  0  0
    4.1585    2.5082   -1.4474 H   0  0  0  0  0  0
  1  2  1  0  0  0
  2  3  2  0  0  0
  2  4  1  0  0  0
  1  5  1  0  0  0
  1  6  1  0  0  0
  1  7  1  0  0  0
  4  8  1  0  0  0
  4  9  1  0  0  0
 10 11  1  0  0  0
 10 12  1  0  0  0
M  END
$$$$
