


 18 16  0  0  1  0            999 V2000
    1.6490    2.7222   -1.3257 C   0  0  0  0  0  0
    0.8085    3.7303   -1.0871 C   0  0  0  0  0  0
    2.7307    2.8436   -1.1980 H   0  0  0  0  0  0
    1.2816    1.7439   -1.6562 H   0  0  0  0  0  0
    1.1758    4.7085   -0.7565 H   0  0  0  0  0  0
   -0.2733    3.6088   -1.2148 H   0  0  0  0  0  0
   -0.9443    0.0615    1.9686 C   0  0  0  0  0  0
    0.4560    0.0700    2.5631 C   0  0  0  0  0  0
    0.9236    1.4113    2.7648 O   0  0  0  0  0  0
    0.5043   -0.5976    3.9225 C   0  0  0  0  0  0
   -1.6406    0.5776    2.6508 H   0  0  0  0  0  0
   -1.2959   -0.9739    1.8242 H   0  0  0  0  0  0
   -0.9597    0.5774    0.9938 H   0  0  0  0  0  0
    1.1474   -0.4579    1.8752 H   0  0  0  0  0  0
    0.8755    1.8778    1.9044 H   0  0  0  0  0  0
    0.1926   -1.6530    3.8478 H   0  0  0  0  0  0
    1.5265   -0.5610    4.3353 H   0  0  0  0  0  0
   -0.1753   -0.0786    4.6192 H   0  0  0  0  0  0
  1  2  2  0  0  0
  1  3  1  0  0  0
  1  4  1  0  0  0
  2  5  1  0  0  0
  2  6  1  0  0  0
  7  8  1  0  0  0
  8  9  1  0  0  0
  8 10  1  0  0  0
  7 11  1  0  0  0
  7 12  1  0  0  0
  7 13  1  0  0  0
  8 14  1  0  0  0
  9 15  1  0  0  0
 10 16  1  0  0  0
 10 17  1  0  0  0
 10 18  1  0  0  0
M  END
$$$$
