


 22 20  0  0  1  0            999 V2000
   -5.6919    3.8788   -2.1018 C   0  0  0  0  0  0
   -6.7899    4.2374   -1.1130 C   0  0  0  0  0  0
   -7.5639    5.2041   -1.7553 O   0  0  0  0  0  0
   -8.8631    5.3295   -1.3445 C   0  0  0  0  0  0
   -9.4981    4.7243   -0.4531 O   0  0  0  0  0  0
   -4.9497    4.6886   -2.2018 H   0  0  0  0  0  0
   -6.0717    3.6238   -3.1055 H   0  0  0  0  0  0
   -5.1901    2.9918   -1.6797 H   0  0  0  0  0  0
   -7.3476    3.2991   -0.9287 H   0  0  0  0  0  0
   -6.5258    4.6708   -0.1291 H   0  0  0  0  0  0
   -9.2676    6.1705   -1.9417 H   0  0  0  0  0  0
    1.7922    4.6996   -4.1655 C   0  0  0  0  0  0
    0.6108    5.5061   -4.7385 C   0  0  0  0  0  0
   -0.5441    4.7252   -4.8952 O   0  0  0  0  0  0
   -1.6808    5.3714   -5.3104 C   0  0  0  0  0  0
   -1.7468    6.5386   -5.6342 O   0  0  0  0  0  0
    2.6336    5.4127   -4.1719 H   0  0  0  0  0  0
    2.0487    3.8469   -4.8165 H   0  0  0  0  0  0
    1.6543    4.3274   -3.1364 H   0  0  0  0  0  0
    0.4096    6.3656   -4.0704 H   0  0  0  0  0  0
    0.9232    5.9094   -5.7209 H   0  0  0  0  0  0
   -2.5866    4.7353   -5.2586 H   0  0  0  0  0  0
  1  2  1  0  0  0
  2  3  1  0  0  0
  3  4  1  0  0  0
  4  5  2  0  0  0
  1  6  1  0  0  0
  1  7  1  0  0  0
  1  8  1  0  0  0
  2  9  1  0  0  0
  2 10  1  0  0  0
  4 11  1  0  0  0
 12 13  1  0  0  0
 13 14  1  0  0  0
 14 15  1  0  0  0
 15 16  2  0  0  0
 12 17  1  0  0  0
 12 18  1  0  0  0
 12 19  1  0  0  0
 13 20  1  0  0  0
 13 21  1  0  0  0
 15 22  1  0  0  0
M  END
$$$$
