


 12 10  0  0  1  0            999 V2000
    1.9210    3.1765    1.6250 C   0  0  0  0  0  0
    1.4916    3.1988    3.0812 C   0  0  0  0  0  0
    0.3538    2.3720    3.3311 O   0  0  0  0  0  0
    2.1365    2.1422    1.3081 H   0  0  0  0  0  0
    2.8309    3.7841    1.4852 H   0  0  0  0  0  0
    1.1240    3.5831    0.9800 H   0  0  0  0  0  0
    2.2913    2.7872    3.7266 H   0  0  0  0  0  0
    1.2949    4.2374    3.4100 H   0  0  0  0  0  0
   -0.3853    2.7129    2.7853 H   0  0  0  0  0  0
    1.3133    0.4706    2.6458 O   0  0  0  0  0  0
    0.7879    1.2184    3.0105 H   0  0  0  0  0  0
    1.0739   -0.2992    3.2101 H   0  0  0  0  0  0
  1  2  1  0  0  0
  2  3  1  0  0  0
  1  4  1  0  0  0
  1  5  1  0  0  0
  1  6  1  0  0  0
  2  7  1  0  0  0
  2  8  1  0  0  0
  3  9  1  0  0  0
 10 11  1  0  0  0
 10 12  1  0  0  0
M  END
$$$$
