


 10  8  0  0  1  0            999 V2000
   -5.2091   -3.7389   -0.9908 O   0  0  0  0  0  0
   -4.6732   -3.2320    0.1129 C   0  0  0  0  0  0
   -5.2973   -3.1689    1.1483 O   0  0  0  0  0  0
   -4.4509   -3.8792   -1.6212 H   0  0  0  0  0  0
   -3.6195   -2.9307   -0.0504 H   0  0  0  0  0  0
   -9.8367   -6.5468    0.9582 O   0  0  0  0  0  0
  -10.9886   -6.9269    0.4546 C   0  0  0  0  0  0
  -11.5147   -6.4107   -0.5343 O   0  0  0  0  0  0
   -9.1796   -6.1525    0.3220 H   0  0  0  0  0  0
  -11.5532   -7.5231    1.1985 H   0  0  0  0  0  0
  1  2  1  0  0  0
  2  3  2  0  0  0
  1  4  1  0  0  0
  2  5  1  0  0  0
  6  7  1  0  0  0
  7  8  2  0  0  0
  6  9  1  0  0  0
  7 10  1  0  0  0
M  END
$$$$
