


 10  8  0  0  1  0            999 V2000
   -2.2731   -4.6017   -3.0998 O   0  0  0  0  0  0
   -1.6781   -4.6861   -1.8811 C   0  0  0  0  0  0
   -0.6764   -3.9966   -1.6197 O   0  0  0  0  0  0
   -1.8865   -3.9505   -3.7467 H   0  0  0  0  0  0
   -2.2390   -5.4050   -1.2516 H   0  0  0  0  0  0
    2.7667    2.5378    3.7162 O   0  0  0  0  0  0
    1.9758    1.5524    3.1592 C   0  0  0  0  0  0
    2.4168    0.8748    2.2591 O   0  0  0  0  0  0
    3.6605    2.4565    3.2843 H   0  0  0  0  0  0
    1.0681    1.3275    3.7535 H   0  0  0  0  0  0
  1  2  1  0  0  0
  2  3  2  0  0  0
  1  4  1  0  0  0
  2  5  1  0  0  0
  6  7  1  0  0  0
  7  8  2  0  0  0
  6  9  1  0  0  0
  7 10  1  0  0  0
M  END
$$$$
