


 10  8  0  0  1  0            999 V2000
   -5.2091   -3.7389   -0.9908 O   0  0  0  0  0  0
   -4.6732   -3.2320    0.1129 C   0  0  0  0  0  0
   -5.2973   -3.1689    1.1483 O   0  0  0  0  0  0
   -4.4509   -3.8792   -1.6212 H   0  0  0  0  0  0
   -3.6195   -2.9307   -0.0504 H   0  0  0  0  0  0
   -7.3320   -5.0147    0.3423 O   0  0  0  0  0  0
   -8.4839   -5.3948   -0.1613 C   0  0  0  0  0  0
   -9.0100   -4.8786   -1.1502 O   0  0  0  0  0  0
   -6.6749   -4.6205   -0.2939 H   0  0  0  0  0  0
   -9.0485   -5.9910    0.5826 H   0  0  0  0  0  0
  1  2  1  0  0  0
  2  3  2  0  0  0
  1  4  1  0  0  0
  2  5  1  0  0  0
  6  7  1  0  0  0
  7  8  2  0  0  0
  6  9  1  0  0  0
  7 10  1  0  0  0
M  END
$$$$
