


 10  8  0  0  1  0            999 V2000
    2.4724   -1.8996   -5.7978 O   0  0  0  0  0  0
    3.1436   -2.4783   -4.7909 C   0  0  0  0  0  0
    3.1172   -2.0824   -3.5995 O   0  0  0  0  0  0
    2.8835   -2.3196   -6.6019 H   0  0  0  0  0  0
    3.7699   -3.3034   -5.1840 H   0  0  0  0  0  0
    0.2878   -4.8527    1.9466 O   0  0  0  0  0  0
   -0.2970   -3.8443    2.5770 C   0  0  0  0  0  0
    0.3416   -2.9016    3.0364 O   0  0  0  0  0  0
   -0.4144   -5.4219    1.5283 H   0  0  0  0  0  0
   -1.3529   -4.1286    2.7559 H   0  0  0  0  0  0
  1  2  1  0  0  0
  2  3  2  0  0  0
  1  4  1  0  0  0
  2  5  1  0  0  0
  6  7  1  0  0  0
  7  8  2  0  0  0
  6  9  1  0  0  0
  7 10  1  0  0  0
M  END
$$$$
