


 10  8  0  0  1  0            999 V2000
    0.0000    0.0000    0.0000 O   0  0  0  0  0  0
   -0.3414    0.8259    0.9991 C   0  0  0  0  0  0
   -1.1423    0.6309    1.8695 O   0  0  0  0  0  0
    0.5411    0.5895   -0.5931 H   0  0  0  0  0  0
    0.2447    1.7546    0.8516 H   0  0  0  0  0  0
   -3.3602    2.2584    0.1512 O   0  0  0  0  0  0
   -4.6353    2.4731    0.5996 C   0  0  0  0  0  0
   -5.0117    3.6100    0.8224 O   0  0  0  0  0  0
   -3.2657    1.2802    0.3133 H   0  0  0  0  0  0
   -5.1734    1.5046    0.5903 H   0  0  0  0  0  0
  1  2  1  0  0  0
  2  3  2  0  0  0
  1  4  1  0  0  0
  2  5  1  0  0  0
  6  7  1  0  0  0
  7  8  2  0  0  0
  6  9  1  0  0  0
  7 10  1  0  0  0
M  END
$$$$
