


 10  8  0  0  1  0            999 V2000
   -4.2773    1.2288    4.7539 O   0  0  0  0  0  0
   -4.1341    0.2098    3.9403 C   0  0  0  0  0  0
   -4.2116    0.3127    2.7051 O   0  0  0  0  0  0
   -4.2776    0.9930    5.7215 H   0  0  0  0  0  0
   -4.0631   -0.7477    4.4933 H   0  0  0  0  0  0
    4.0235   -4.7707    0.4288 O   0  0  0  0  0  0
    3.2132   -4.1630    1.2966 C   0  0  0  0  0  0
    2.4685   -4.7675    2.0259 O   0  0  0  0  0  0
    4.5929   -4.1746   -0.1303 H   0  0  0  0  0  0
    3.4601   -3.0866    1.2074 H   0  0  0  0  0  0
  1  2  1  0  0  0
  2  3  2  0  0  0
  1  4  1  0  0  0
  2  5  1  0  0  0
  6  7  1  0  0  0
  7  8  2  0  0  0
  6  9  1  0  0  0
  7 10  1  0  0  0
M  END
$$$$
