


 10  8  0  0  1  0            999 V2000
    1.9666   -3.7161   -2.0791 O   0  0  0  0  0  0
    2.8119   -3.3775   -1.0633 C   0  0  0  0  0  0
    2.4889   -3.4176    0.0835 O   0  0  0  0  0  0
    1.0673   -3.8967   -1.6910 H   0  0  0  0  0  0
    3.8469   -3.1648   -1.3967 H   0  0  0  0  0  0
   -4.1659   -4.1833    1.0680 O   0  0  0  0  0  0
   -4.8705   -4.0918    2.2045 C   0  0  0  0  0  0
   -4.3274   -4.1626    3.3135 O   0  0  0  0  0  0
   -3.2153   -4.3109    1.3366 H   0  0  0  0  0  0
   -5.9302   -3.8354    2.0070 H   0  0  0  0  0  0
  1  2  1  0  0  0
  2  3  2  0  0  0
  1  4  1  0  0  0
  2  5  1  0  0  0
  6  7  1  0  0  0
  7  8  2  0  0  0
  6  9  1  0  0  0
  7 10  1  0  0  0
M  END
$$$$
