


 10  8  0  0  1  0            999 V2000
   -1.6268    0.5162   -5.5200 O   0  0  0  0  0  0
   -2.5417   -0.2360   -6.0824 C   0  0  0  0  0  0
   -3.4514   -0.7639   -5.4914 O   0  0  0  0  0  0
   -1.9150    0.5934   -4.5698 H   0  0  0  0  0  0
   -2.2685   -0.4651   -7.1315 H   0  0  0  0  0  0
   -4.8696    2.2524    1.0844 O   0  0  0  0  0  0
   -3.9705    2.1776    2.1061 C   0  0  0  0  0  0
   -3.1330    3.0539    2.3356 O   0  0  0  0  0  0
   -4.7130    3.0740    0.5435 H   0  0  0  0  0  0
   -4.0543    1.1769    2.5743 H   0  0  0  0  0  0
  1  2  1  0  0  0
  2  3  2  0  0  0
  1  4  1  0  0  0
  2  5  1  0  0  0
  6  7  1  0  0  0
  7  8  2  0  0  0
  6  9  1  0  0  0
  7 10  1  0  0  0
M  END
$$$$
