


 10  8  0  0  1  0            999 V2000
    2.4893   -1.6172    3.8830 O   0  0  0  0  0  0
    2.6240   -1.0070    2.6821 C   0  0  0  0  0  0
    1.6750   -0.5815    1.9987 O   0  0  0  0  0  0
    1.5754   -1.7205    4.2652 H   0  0  0  0  0  0
    3.6745   -0.9988    2.3301 H   0  0  0  0  0  0
   -1.4060    2.4778   -5.0754 O   0  0  0  0  0  0
   -0.6026    3.2999   -4.4573 C   0  0  0  0  0  0
   -0.6836    3.4776   -3.2692 O   0  0  0  0  0  0
   -2.0844    1.9769   -4.5453 H   0  0  0  0  0  0
    0.1531    3.7136   -5.1540 H   0  0  0  0  0  0
  1  2  1  0  0  0
  2  3  2  0  0  0
  1  4  1  0  0  0
  2  5  1  0  0  0
  6  7  1  0  0  0
  7  8  2  0  0  0
  6  9  1  0  0  0
  7 10  1  0  0  0
M  END
$$$$
