


 10  8  0  0  1  0            999 V2000
   -3.7329    2.6036   -0.7378 O   0  0  0  0  0  0
   -4.1947    1.3020   -0.7996 C   0  0  0  0  0  0
   -3.6311    0.4785   -1.5003 O   0  0  0  0  0  0
   -2.8937    2.5434   -1.2707 H   0  0  0  0  0  0
   -5.1561    1.2188   -0.2552 H   0  0  0  0  0  0
   -2.3728    4.4987   -4.3834 O   0  0  0  0  0  0
   -2.4641    3.1730   -4.4913 C   0  0  0  0  0  0
   -3.0564    2.5175   -3.6195 O   0  0  0  0  0  0
   -3.0250    4.9691   -3.7957 H   0  0  0  0  0  0
   -2.0433    2.8661   -5.4692 H   0  0  0  0  0  0
  1  2  1  0  0  0
  2  3  2  0  0  0
  1  4  1  0  0  0
  2  5  1  0  0  0
  6  7  1  0  0  0
  7  8  2  0  0  0
  6  9  1  0  0  0
  7 10  1  0  0  0
M  END
$$$$
