


 10  8  0  0  1  0            999 V2000
   -4.2094   -3.2898   -3.8349 O   0  0  0  0  0  0
   -3.3720   -3.9560   -3.0054 C   0  0  0  0  0  0
   -3.6850   -4.9760   -2.4224 O   0  0  0  0  0  0
   -5.0665   -3.7944   -3.8878 H   0  0  0  0  0  0
   -2.3902   -3.4426   -3.0176 H   0  0  0  0  0  0
    1.1474    0.9682    5.3635 O   0  0  0  0  0  0
   -0.2151    0.5996    5.3287 C   0  0  0  0  0  0
   -0.5677   -0.3509    6.0565 O   0  0  0  0  0  0
    1.7898    0.4092    5.8801 H   0  0  0  0  0  0
   -0.6979    1.2251    4.5519 H   0  0  0  0  0  0
  1  2  1  0  0  0
  2  3  2  0  0  0
  1  4  1  0  0  0
  2  5  1  0  0  0
  6  7  1  0  0  0
  7  8  2  0  0  0
  6  9  1  0  0  0
  7 10  1  0  0  0
M  END
$$$$
