


 19 17  0  0  1  0            999 V2000
   -0.3604    0.7386   -0.4299 C   0  0  0  0  0  0
    0.6115   -0.0189    0.4451 C   0  0  0  0  0  0
    0.5279   -0.0072    1.6623 O   0  0  0  0  0  0
    1.6930   -0.7917   -0.2742 C   0  0  0  0  0  0
   -1.1090    1.2610    0.1891 H   0  0  0  0  0  0
   -0.8862    0.0451   -1.1075 H   0  0  0  0  0  0
    0.1762    1.4858   -1.0385 H   0  0  0  0  0  0
    1.2437   -1.5511   -0.9360 H   0  0  0  0  0  0
    2.3075   -0.1105   -0.8865 H   0  0  0  0  0  0
    2.3492   -1.3012    0.4513 H   0  0  0  0  0  0
    4.3178    2.2434    3.1512 C   0  0  0  0  0  0
    3.2575    3.3115    2.9234 C   0  0  0  0  0  0
    3.0979    3.8191    1.1834 S   0  0  0  0  0  0
    4.1022    1.3511    2.5397 H   0  0  0  0  0  0
    4.3364    1.9460    4.2132 H   0  0  0  0  0  0
    5.3148    2.6263    2.8756 H   0  0  0  0  0  0
    2.2529    2.9281    3.1864 H   0  0  0  0  0  0
    3.4494    4.2070    3.5454 H   0  0  0  0  0  0
    4.3588    4.2818    1.0475 H   0  0  0  0  0  0
  1  2  1  0  0  0
  2  3  2  0  0  0
  2  4  1  0  0  0
  1  5  1  0  0  0
  1  6  1  0  0  0
  1  7  1  0  0  0
  4  8  1  0  0  0
  4  9  1  0  0  0
  4 10  1  0  0  0
 11 12  1  0  0  0
 12 13  1  0  0  0
 11 14  1  0  0  0
 11 15  1  0  0  0
 11 16  1  0  0  0
 12 17  1  0  0  0
 12 18  1  0  0  0
 13 19  1  0  0  0
M  END
$$$$
