


 13 11  0  0  1  0            999 V2000
    0.4147    1.0784    3.9232 C   0  0  0  0  0  0
   -0.2356    1.9002    2.8546 N   0  0  0  0  0  0
   -0.3413    2.8872    3.1650 H   0  0  0  0  0  0
    0.3363    1.8906    1.9861 H   0  0  0  0  0  0
   -1.1793    1.5262    2.6283 H   0  0  0  0  0  0
    1.4149    1.4791    4.1593 H   0  0  0  0  0  0
    0.5245    0.0330    3.5891 H   0  0  0  0  0  0
   -0.1956    1.0919    4.8418 H   0  0  0  0  0  0
    2.1177    1.4503   -0.6446 Cl  0  0  0  0  0  0
    1.3939   -0.0090   -1.3201 C   0  0  0  0  0  0
    0.1439   -0.6943   -0.2819 Cl  0  0  0  0  0  0
    0.9533    0.2296   -2.3072 H   0  0  0  0  0  0
    2.1864   -0.7654   -1.4792 H   0  0  0  0  0  0
  1  2  1  0  0  0
  2  3  1  0  0  0
  2  4  1  0  0  0
  2  5  1  0  0  0
  1  6  1  0  0  0
  1  7  1  0  0  0
  1  8  1  0  0  0
  9 10  1  0  0  0
 10 11  1  0  0  0
 10 12  1  0  0  0
 10 13  1  0  0  0
M  CHG  1   2   1
M  END
$$$$
