


 21 19  0  0  1  0            999 V2000
    1.9171   -0.5549    0.1949 C   0  0  0  0  0  0
    0.5840   -0.1035   -0.3380 C   0  0  0  0  0  0
    0.4385    0.3736   -1.5806 C   0  0  0  0  0  0
   -0.5752   -0.2223    0.6144 C   0  0  0  0  0  0
    2.7068   -0.4337   -0.5655 H   0  0  0  0  0  0
    1.8678   -1.6181    0.4845 H   0  0  0  0  0  0
    2.1897    0.0394    1.0832 H   0  0  0  0  0  0
   -0.5401    0.6980   -1.9524 H   0  0  0  0  0  0
    1.2940    0.4532   -2.2611 H   0  0  0  0  0  0
   -0.7083   -1.2743    0.9181 H   0  0  0  0  0  0
   -0.3863    0.3832    1.5168 H   0  0  0  0  0  0
   -1.5090    0.1290    0.1441 H   0  0  0  0  0  0
    1.7201    4.7485    2.5644 C   0  0  0  0  0  0
    1.4349    3.4008    1.9387 C   0  0  0  0  0  0
    1.4030    2.3576    2.5765 O   0  0  0  0  0  0
    1.2122    3.4325    0.5906 N   0  0  0  0  0  0
    1.8848    4.6175    3.6471 H   0  0  0  0  0  0
    0.8713    5.4377    2.4186 H   0  0  0  0  0  0
    2.6229    5.2040    2.1238 H   0  0  0  0  0  0
    1.2396    4.3066    0.0599 H   0  0  0  0  0  0
    1.0140    2.5500    0.1128 H   0  0  0  0  0  0
  1  2  1  0  0  0
  2  3  2  0  0  0
  2  4  1  0  0  0
  1  5  1  0  0  0
  1  6  1  0  0  0
  1  7  1  0  0  0
  3  8  1  0  0  0
  3  9  1  0  0  0
  4 10  1  0  0  0
  4 11  1  0  0  0
  4 12  1  0  0  0
 13 14  1  0  0  0
 14 15  2  0  0  0
 14 16  1  0  0  0
 13 17  1  0  0  0
 13 18  1  0  0  0
 13 19  1  0  0  0
 16 20  1  0  0  0
 16 21  1  0  0  0
M  END
$$$$
