


 24 22  0  0  1  0            999 V2000
   -0.6229   -1.2851    3.5646 C   0  0  0  0  0  0
   -1.8339   -1.9928    4.6981 S   0  0  0  0  0  0
   -3.0840   -0.7574    4.3024 C   0  0  0  0  0  0
   -3.9478   -1.1992    3.0343 C   0  0  0  0  0  0
   -0.5257   -0.1865    3.5486 H   0  0  0  0  0  0
   -0.8739   -1.6309    2.5478 H   0  0  0  0  0  0
    0.3484   -1.7200    3.8544 H   0  0  0  0  0  0
   -3.7140   -0.6093    5.2005 H   0  0  0  0  0  0
   -2.6853    0.2314    4.0041 H   0  0  0  0  0  0
   -3.4125   -1.6520    2.1828 H   0  0  0  0  0  0
   -4.5290   -0.3370    2.6663 H   0  0  0  0  0  0
   -4.6479   -1.9453    3.4466 H   0  0  0  0  0  0
    5.3597   -3.5747   -3.6037 C   0  0  0  0  0  0
    5.4657   -1.7605   -3.7784 S   0  0  0  0  0  0
    6.2912   -1.5782   -5.3373 C   0  0  0  0  0  0
    7.4306   -0.5091   -5.2568 C   0  0  0  0  0  0
    4.9874   -3.7365   -2.5781 H   0  0  0  0  0  0
    6.3469   -4.0572   -3.6998 H   0  0  0  0  0  0
    4.6628   -4.0553   -4.3108 H   0  0  0  0  0  0
    6.8126   -2.4534   -5.7705 H   0  0  0  0  0  0
    5.5800   -1.2002   -6.0968 H   0  0  0  0  0  0
    7.9599   -0.4235   -6.2207 H   0  0  0  0  0  0
    8.1631   -0.7725   -4.4754 H   0  0  0  0  0  0
    6.9895    0.4712   -5.0094 H   0  0  0  0  0  0
  1  2  1  0  0  0
  2  3  1  0  0  0
  3  4  1  0  0  0
  1  5  1  0  0  0
  1  6  1  0  0  0
  1  7  1  0  0  0
  3  8  1  0  0  0
  3  9  1  0  0  0
  4 10  1  0  0  0
  4 11  1  0  0  0
  4 12  1  0  0  0
 13 14  1  0  0  0
 14 15  1  0  0  0
 15 16  1  0  0  0
 13 17  1  0  0  0
 13 18  1  0  0  0
 13 19  1  0  0  0
 15 20  1  0  0  0
 15 21  1  0  0  0
 16 22  1  0  0  0
 16 23  1  0  0  0
 16 24  1  0  0  0
M  END
$$$$
