


 24 22  0  0  1  0            999 V2000
    0.0000    0.0000    0.0000 C   0  0  0  0  0  0
   -1.6303   -0.7175   -0.4793 S   0  0  0  0  0  0
   -2.4875    0.9153   -0.6651 C   0  0  0  0  0  0
   -2.3663    1.3974   -2.1740 C   0  0  0  0  0  0
    0.7208   -0.8277    0.1092 H   0  0  0  0  0  0
   -0.0276    0.5694    0.9443 H   0  0  0  0  0  0
    0.3513    0.6686   -0.8038 H   0  0  0  0  0  0
   -3.5614    0.7051   -0.4975 H   0  0  0  0  0  0
   -2.1796    1.6932    0.0598 H   0  0  0  0  0  0
   -3.2507    1.1279   -2.7755 H   0  0  0  0  0  0
   -1.4707    0.9670   -2.6528 H   0  0  0  0  0  0
   -2.2675    2.4959   -2.1663 H   0  0  0  0  0  0
    5.6563    1.3309   -1.3560 C   0  0  0  0  0  0
    4.5494    2.6061   -1.9490 S   0  0  0  0  0  0
    3.1842    1.5594   -2.5798 C   0  0  0  0  0  0
    2.0757    2.4028   -3.1975 C   0  0  0  0  0  0
    6.0051    0.6313   -2.1342 H   0  0  0  0  0  0
    5.1886    0.7491   -0.5440 H   0  0  0  0  0  0
    6.5297    1.8663   -0.9472 H   0  0  0  0  0  0
    3.5657    0.9067   -3.3884 H   0  0  0  0  0  0
    2.8799    0.9087   -1.7375 H   0  0  0  0  0  0
    2.3694    2.6675   -4.2271 H   0  0  0  0  0  0
    1.7895    3.3254   -2.6651 H   0  0  0  0  0  0
    1.1983    1.7358   -3.2424 H   0  0  0  0  0  0
  1  2  1  0  0  0
  2  3  1  0  0  0
  3  4  1  0  0  0
  1  5  1  0  0  0
  1  6  1  0  0  0
  1  7  1  0  0  0
  3  8  1  0  0  0
  3  9  1  0  0  0
  4 10  1  0  0  0
  4 11  1  0  0  0
  4 12  1  0  0  0
 13 14  1  0  0  0
 14 15  1  0  0  0
 15 16  1  0  0  0
 13 17  1  0  0  0
 13 18  1  0  0  0
 13 19  1  0  0  0
 15 20  1  0  0  0
 15 21  1  0  0  0
 16 22  1  0  0  0
 16 23  1  0  0  0
 16 24  1  0  0  0
M  END
$$$$
