


 24 22  0  0  1  0            999 V2000
   -6.6600    2.3251    7.3228 C   0  0  0  0  0  0
   -6.2004    3.9777    6.7670 S   0  0  0  0  0  0
   -4.7370    4.3874    7.6774 C   0  0  0  0  0  0
   -4.5218    5.9047    7.7649 C   0  0  0  0  0  0
   -7.5681    1.9727    6.8053 H   0  0  0  0  0  0
   -6.8579    2.3429    8.4077 H   0  0  0  0  0  0
   -5.8432    1.6106    7.1258 H   0  0  0  0  0  0
   -4.8896    4.0652    8.7254 H   0  0  0  0  0  0
   -3.8535    3.8482    7.2847 H   0  0  0  0  0  0
   -4.0262    6.2339    6.8361 H   0  0  0  0  0  0
   -3.8439    6.0985    8.6131 H   0  0  0  0  0  0
   -5.4392    6.5009    7.9045 H   0  0  0  0  0  0
   -6.9981   11.8078    4.5220 C   0  0  0  0  0  0
   -7.8966   10.7492    5.5704 S   0  0  0  0  0  0
   -6.9627    9.1996    5.7202 C   0  0  0  0  0  0
   -7.7945    8.0434    5.2429 C   0  0  0  0  0  0
   -7.5210   12.7757    4.4423 H   0  0  0  0  0  0
   -7.0180   11.3149    3.5355 H   0  0  0  0  0  0
   -5.9475   11.9974    4.7994 H   0  0  0  0  0  0
   -6.0923    9.2351    5.0372 H   0  0  0  0  0  0
   -6.5769    9.0849    6.7514 H   0  0  0  0  0  0
   -7.2573    7.0839    5.1568 H   0  0  0  0  0  0
   -8.2680    8.2698    4.2728 H   0  0  0  0  0  0
   -8.5857    7.9366    6.0041 H   0  0  0  0  0  0
  1  2  1  0  0  0
  2  3  1  0  0  0
  3  4  1  0  0  0
  1  5  1  0  0  0
  1  6  1  0  0  0
  1  7  1  0  0  0
  3  8  1  0  0  0
  3  9  1  0  0  0
  4 10  1  0  0  0
  4 11  1  0  0  0
  4 12  1  0  0  0
 13 14  1  0  0  0
 14 15  1  0  0  0
 15 16  1  0  0  0
 13 17  1  0  0  0
 13 18  1  0  0  0
 13 19  1  0  0  0
 15 20  1  0  0  0
 15 21  1  0  0  0
 16 22  1  0  0  0
 16 23  1  0  0  0
 16 24  1  0  0  0
M  END
$$$$
