


 24 22  0  0  1  0            999 V2000
   -4.6913   -4.3713   -3.6671 C   0  0  0  0  0  0
   -4.2376   -4.0903   -5.3682 S   0  0  0  0  0  0
   -2.5817   -4.8460   -5.3479 C   0  0  0  0  0  0
   -1.3970   -3.8289   -5.2274 C   0  0  0  0  0  0
   -5.4187   -3.5636   -3.4796 H   0  0  0  0  0  0
   -3.8933   -4.3092   -2.9082 H   0  0  0  0  0  0
   -5.2060   -5.3407   -3.5580 H   0  0  0  0  0  0
   -2.6262   -5.6011   -4.5397 H   0  0  0  0  0  0
   -2.5098   -5.3873   -6.3108 H   0  0  0  0  0  0
   -0.4821   -4.1198   -5.7705 H   0  0  0  0  0  0
   -1.1301   -3.6133   -4.1791 H   0  0  0  0  0  0
   -1.7999   -2.9093   -5.6841 H   0  0  0  0  0  0
    1.6157    7.5532    0.2396 C   0  0  0  0  0  0
    2.7668    6.1694    0.0762 S   0  0  0  0  0  0
    1.7767    5.1179   -0.9438 C   0  0  0  0  0  0
    2.2264    3.7145   -0.6560 C   0  0  0  0  0  0
    2.0447    8.3340    0.8899 H   0  0  0  0  0  0
    0.6467    7.2374    0.6613 H   0  0  0  0  0  0
    1.4404    7.9851   -0.7600 H   0  0  0  0  0  0
    0.7296    5.3678   -0.6860 H   0  0  0  0  0  0
    1.9454    5.4192   -1.9956 H   0  0  0  0  0  0
    3.2739    3.5516   -0.9608 H   0  0  0  0  0  0
    1.5845    3.0120   -1.2136 H   0  0  0  0  0  0
    2.1352    3.4953    0.4211 H   0  0  0  0  0  0
  1  2  1  0  0  0
  2  3  1  0  0  0
  3  4  1  0  0  0
  1  5  1  0  0  0
  1  6  1  0  0  0
  1  7  1  0  0  0
  3  8  1  0  0  0
  3  9  1  0  0  0
  4 10  1  0  0  0
  4 11  1  0  0  0
  4 12  1  0  0  0
 13 14  1  0  0  0
 14 15  1  0  0  0
 15 16  1  0  0  0
 13 17  1  0  0  0
 13 18  1  0  0  0
 13 19  1  0  0  0
 15 20  1  0  0  0
 15 21  1  0  0  0
 16 22  1  0  0  0
 16 23  1  0  0  0
 16 24  1  0  0  0
M  END
$$$$
