


 24 22  0  0  1  0            999 V2000
    2.2530    4.9438   -1.4253 C   0  0  0  0  0  0
    0.5381    4.5436   -1.8535 S   0  0  0  0  0  0
   -0.1260    4.0692   -0.3145 C   0  0  0  0  0  0
   -1.4666    3.4769   -0.5365 C   0  0  0  0  0  0
    2.6525    5.5969   -2.2194 H   0  0  0  0  0  0
    2.9566    4.1089   -1.2693 H   0  0  0  0  0  0
    2.1858    5.5265   -0.4912 H   0  0  0  0  0  0
    0.5353    3.2867    0.1048 H   0  0  0  0  0  0
   -0.2598    4.8478    0.4609 H   0  0  0  0  0  0
   -1.9269    3.1413    0.4080 H   0  0  0  0  0  0
   -1.4738    2.6356   -1.2498 H   0  0  0  0  0  0
   -2.0758    4.2966   -0.9531 H   0  0  0  0  0  0
   -2.7443   -4.3598   -2.9332 C   0  0  0  0  0  0
   -1.6663   -5.5833   -2.3574 S   0  0  0  0  0  0
   -0.1646   -4.4927   -2.1595 C   0  0  0  0  0  0
    1.0798   -5.3380   -1.9326 C   0  0  0  0  0  0
   -2.5454   -3.8672   -3.8998 H   0  0  0  0  0  0
   -2.8663   -3.5822   -2.1605 H   0  0  0  0  0  0
   -3.6874   -4.9261   -3.0144 H   0  0  0  0  0  0
   -0.0720   -3.9851   -3.1390 H   0  0  0  0  0  0
   -0.3705   -3.7173   -1.3968 H   0  0  0  0  0  0
    1.2216   -6.0918   -2.7254 H   0  0  0  0  0  0
    1.0444   -5.8543   -0.9586 H   0  0  0  0  0  0
    1.9460   -4.6551   -1.9376 H   0  0  0  0  0  0
  1  2  1  0  0  0
  2  3  1  0  0  0
  3  4  1  0  0  0
  1  5  1  0  0  0
  1  6  1  0  0  0
  1  7  1  0  0  0
  3  8  1  0  0  0
  3  9  1  0  0  0
  4 10  1  0  0  0
  4 11  1  0  0  0
  4 12  1  0  0  0
 13 14  1  0  0  0
 14 15  1  0  0  0
 15 16  1  0  0  0
 13 17  1  0  0  0
 13 18  1  0  0  0
 13 19  1  0  0  0
 15 20  1  0  0  0
 15 21  1  0  0  0
 16 22  1  0  0  0
 16 23  1  0  0  0
 16 24  1  0  0  0
M  END
$$$$
