


 20 18  0  0  1  0            999 V2000
   -0.4581  -13.2471    4.2579 O   0  0  0  0  0  0
   -1.6260  -12.7254    4.7688 C   0  0  0  0  0  0
   -2.2481  -13.6664    5.8696 C   0  0  0  0  0  0
   -1.3321  -13.6259    6.9759 O   0  0  0  0  0  0
    0.0326  -13.7181    4.9635 H   0  0  0  0  0  0
   -1.4437  -11.7368    5.2323 H   0  0  0  0  0  0
   -2.3133  -12.5749    3.9142 H   0  0  0  0  0  0
   -3.2508  -13.2691    6.1189 H   0  0  0  0  0  0
   -2.3841  -14.6771    5.4389 H   0  0  0  0  0  0
   -1.2988  -12.7176    7.3422 H   0  0  0  0  0  0
    4.6287  -16.1349    4.3490 O   0  0  0  0  0  0
    3.5494  -16.0353    5.2149 C   0  0  0  0  0  0
    2.5943  -14.9893    4.6669 C   0  0  0  0  0  0
    1.4373  -14.8484    5.5047 O   0  0  0  0  0  0
    5.1357  -15.3158    4.5295 H   0  0  0  0  0  0
    3.1607  -17.0602    5.3697 H   0  0  0  0  0  0
    3.9116  -15.6615    6.1919 H   0  0  0  0  0  0
    3.1507  -14.0467    4.5013 H   0  0  0  0  0  0
    2.2887  -15.3781    3.6766 H   0  0  0  0  0  0
    1.6925  -14.4785    6.3756 H   0  0  0  0  0  0
  1  2  1  0  0  0
  2  3  1  0  0  0
  3  4  1  0  0  0
  1  5  1  0  0  0
  2  6  1  0  0  0
  2  7  1  0  0  0
  3  8  1  0  0  0
  3  9  1  0  0  0
  4 10  1  0  0  0
 11 12  1  0  0  0
 12 13  1  0  0  0
 13 14  1  0  0  0
 11 15  1  0  0  0
 12 16  1  0  0  0
 12 17  1  0  0  0
 13 18  1  0  0  0
 13 19  1  0  0  0
 14 20  1  0  0  0
M  END
$$$$
