


 20 18  0  0  1  0            999 V2000
   -0.4581  -13.2471    4.2579 O   0  0  0  0  0  0
   -1.6260  -12.7254    4.7688 C   0  0  0  0  0  0
   -2.2481  -13.6664    5.8696 C   0  0  0  0  0  0
   -1.3321  -13.6259    6.9759 O   0  0  0  0  0  0
    0.0326  -13.7181    4.9635 H   0  0  0  0  0  0
   -1.4437  -11.7368    5.2323 H   0  0  0  0  0  0
   -2.3133  -12.5749    3.9142 H   0  0  0  0  0  0
   -3.2508  -13.2691    6.1189 H   0  0  0  0  0  0
   -2.3841  -14.6771    5.4389 H   0  0  0  0  0  0
   -1.2988  -12.7176    7.3422 H   0  0  0  0  0  0
    4.2917  -15.9244    4.3024 O   0  0  0  0  0  0
    3.2124  -15.8249    5.1682 C   0  0  0  0  0  0
    2.2574  -14.7789    4.6202 C   0  0  0  0  0  0
    1.1003  -14.6379    5.4580 O   0  0  0  0  0  0
    4.7987  -15.1054    4.4828 H   0  0  0  0  0  0
    2.8237  -16.8498    5.3230 H   0  0  0  0  0  0
    3.5746  -15.4511    6.1452 H   0  0  0  0  0  0
    2.8137  -13.8363    4.4546 H   0  0  0  0  0  0
    1.9517  -15.1677    3.6299 H   0  0  0  0  0  0
    1.3555  -14.2681    6.3289 H   0  0  0  0  0  0
  1  2  1  0  0  0
  2  3  1  0  0  0
  3  4  1  0  0  0
  1  5  1  0  0  0
  2  6  1  0  0  0
  2  7  1  0  0  0
  3  8  1  0  0  0
  3  9  1  0  0  0
  4 10  1  0  0  0
 11 12  1  0  0  0
 12 13  1  0  0  0
 13 14  1  0  0  0
 11 15  1  0  0  0
 12 16  1  0  0  0
 12 17  1  0  0  0
 13 18  1  0  0  0
 13 19  1  0  0  0
 14 20  1  0  0  0
M  END
$$$$
