


 20 18  0  0  1  0            999 V2000
   -5.3629   14.4233    5.5378 O   0  0  0  0  0  0
   -4.2752   13.8864    4.9195 C   0  0  0  0  0  0
   -3.5775   12.7075    5.6849 C   0  0  0  0  0  0
   -3.0788   13.3375    6.9061 O   0  0  0  0  0  0
   -5.7866   15.0094    4.8766 H   0  0  0  0  0  0
   -4.5433   13.4393    3.9430 H   0  0  0  0  0  0
   -3.5715   14.7190    4.7267 H   0  0  0  0  0  0
   -4.2072   11.8780    6.0599 H   0  0  0  0  0  0
   -2.7863   12.2678    5.0476 H   0  0  0  0  0  0
   -3.6266   14.1312    7.0805 H   0  0  0  0  0  0
  -10.4198   15.6294    5.0080 O   0  0  0  0  0  0
  -10.2254   15.9169    6.4112 C   0  0  0  0  0  0
   -8.7624   15.5355    6.8529 C   0  0  0  0  0  0
   -8.5315   14.2014    6.6407 O   0  0  0  0  0  0
   -9.7437   14.9679    4.7515 H   0  0  0  0  0  0
  -10.4527   16.9789    6.6252 H   0  0  0  0  0  0
  -10.9144   15.2967    7.0163 H   0  0  0  0  0  0
   -7.9900   16.1288    6.3268 H   0  0  0  0  0  0
   -8.6123   15.6766    7.9406 H   0  0  0  0  0  0
   -7.6382   14.1890    6.2380 H   0  0  0  0  0  0
  1  2  1  0  0  0
  2  3  1  0  0  0
  3  4  1  0  0  0
  1  5  1  0  0  0
  2  6  1  0  0  0
  2  7  1  0  0  0
  3  8  1  0  0  0
  3  9  1  0  0  0
  4 10  1  0  0  0
 11 12  1  0  0  0
 12 13  1  0  0  0
 13 14  1  0  0  0
 11 15  1  0  0  0
 12 16  1  0  0  0
 12 17  1  0  0  0
 13 18  1  0  0  0
 13 19  1  0  0  0
 14 20  1  0  0  0
M  END
$$$$
