


 29 29  0  0  1  0            999 V2000
    1.9765    3.3138    0.1953 O   0  0  0  0  0  0
    1.8584    4.3206    1.2109 C   0  0  0  0  0  0
    0.4425    4.3763    1.7807 C   0  0  0  0  0  0
    0.3337    3.0989    2.6360 C   0  0  0  0  0  0
    1.7897    2.7576    3.0568 C   0  0  0  0  0  0
    2.6762    3.8338    2.3981 C   0  0  0  0  0  0
    1.3538    3.5442   -0.5254 H   0  0  0  0  0  0
    2.2065    5.2987    0.8211 H   0  0  0  0  0  0
   -0.3299    4.4411    0.9903 H   0  0  0  0  0  0
    0.3543    5.2810    2.4125 H   0  0  0  0  0  0
   -0.0898    2.2733    2.0323 H   0  0  0  0  0  0
   -0.3295    3.2519    3.5091 H   0  0  0  0  0  0
    2.0692    1.7543    2.6817 H   0  0  0  0  0  0
    1.9126    2.7520    4.1569 H   0  0  0  0  0  0
    3.6687    3.4577    2.0835 H   0  0  0  0  0  0
    2.8414    4.6851    3.0862 H   0  0  0  0  0  0
    3.7932    0.5365    0.5029 O   0  0  0  0  0  0
    3.0457   -0.5897    0.7389 C   0  0  0  0  0  0
    3.7395   -1.7628    1.0372 C   0  0  0  0  0  0
    3.0334   -2.9372    1.2860 C   0  0  0  0  0  0
    1.6383   -2.9506    1.2395 C   0  0  0  0  0  0
    0.9515   -1.7750    0.9408 C   0  0  0  0  0  0
    1.6510   -0.5943    0.6904 C   0  0  0  0  0  0
    3.1771    1.2835    0.3067 H   0  0  0  0  0  0
    4.8367   -1.7368    1.0702 H   0  0  0  0  0  0
    3.5850   -3.8572    1.5202 H   0  0  0  0  0  0
    1.0861   -3.8790    1.4363 H   0  0  0  0  0  0
   -0.1457   -1.7704    0.9007 H   0  0  0  0  0  0
    1.1085    0.3309    0.4553 H   0  0  0  0  0  0
  1  2  1  0  0  0
  2  3  1  0  0  0
  3  4  1  0  0  0
  4  5  1  0  0  0
  5  6  1  0  0  0
  2  6  1  0  0  0
  1  7  1  0  0  0
  2  8  1  0  0  0
  3  9  1  0  0  0
  3 10  1  0  0  0
  4 11  1  0  0  0
  4 12  1  0  0  0
  5 13  1  0  0  0
  5 14  1  0  0  0
  6 15  1  0  0  0
  6 16  1  0  0  0
 17 18  1  0  0  0
 18 19  2  0  0  0
 19 20  1  0  0  0
 20 21  2  0  0  0
 21 22  1  0  0  0
 22 23  2  0  0  0
 18 23  1  0  0  0
 17 24  1  0  0  0
 19 25  1  0  0  0
 20 26  1  0  0  0
 21 27  1  0  0  0
 22 28  1  0  0  0
 23 29  1  0  0  0
M  END
$$$$
