


 23 22  0  0  1  0            999 V2000
   -0.2847    3.7674    1.9183 C   0  0  0  0  0  0
   -0.6244    3.5030    3.6690 S   0  0  0  0  0  0
   -0.6321    1.7080    3.4791 C   0  0  0  0  0  0
   -1.5505    1.3855    2.3126 C   0  0  0  0  0  0
   -1.1258    2.4832    0.9247 S   0  0  0  0  0  0
    0.8028    3.7438    1.7130 H   0  0  0  0  0  0
   -0.6594    4.7692    1.6330 H   0  0  0  0  0  0
   -0.9915    1.2627    4.4267 H   0  0  0  0  0  0
    0.3941    1.3337    3.2992 H   0  0  0  0  0  0
   -2.6113    1.5253    2.5964 H   0  0  0  0  0  0
   -1.4287    0.3398    1.9703 H   0  0  0  0  0  0
    3.7371    2.2279    2.3522 C   0  0  0  0  0  0
    3.3779    1.7583    1.0284 N   0  0  0  0  0  0
    2.7072    0.5848    0.8604 C   0  0  0  0  0  0
    2.3846   -0.1132    1.8172 O   0  0  0  0  0  0
    2.3984    0.2197   -0.5761 C   0  0  0  0  0  0
    4.2700    3.1893    2.2605 H   0  0  0  0  0  0
    4.3982    1.5064    2.8612 H   0  0  0  0  0  0
    2.8390    2.3814    2.9739 H   0  0  0  0  0  0
    3.6291    2.3120    0.2057 H   0  0  0  0  0  0
    3.3250    0.1128   -1.1648 H   0  0  0  0  0  0
    1.8577   -0.7415   -0.5933 H   0  0  0  0  0  0
    1.7658    0.9877   -1.0521 H   0  0  0  0  0  0
  1  2  1  0  0  0
  2  3  1  0  0  0
  3  4  1  0  0  0
  4  5  1  0  0  0
  1  5  1  0  0  0
  1  6  1  0  0  0
  1  7  1  0  0  0
  3  8  1  0  0  0
  3  9  1  0  0  0
  4 10  1  0  0  0
  4 11  1  0  0  0
 12 13  1  0  0  0
 13 14  1  0  0  0
 14 15  2  0  0  0
 14 16  1  0  0  0
 12 17  1  0  0  0
 12 18  1  0  0  0
 12 19  1  0  0  0
 13 20  1  0  0  0
 16 21  1  0  0  0
 16 22  1  0  0  0
 16 23  1  0  0  0
M  END
$$$$
