


 28 27  0  0  1  0            999 V2000
    0.6299    3.6690    0.5073 C   0  0  0  0  0  0
    1.2411    3.7448    1.9128 C   0  0  0  0  0  0
    2.6498    3.1170    1.7485 C   0  0  0  0  0  0
    2.7208    2.7371    0.2634 C   0  0  0  0  0  0
    1.3123    2.5081   -0.0719 N   0  0  0  0  0  0
    0.8438    4.6021   -0.0487 H   0  0  0  0  0  0
   -0.4676    3.5241    0.5119 H   0  0  0  0  0  0
    1.2795    4.7860    2.2866 H   0  0  0  0  0  0
    0.6341    3.1537    2.6253 H   0  0  0  0  0  0
    2.7468    2.2122    2.3790 H   0  0  0  0  0  0
    3.4623    3.8134    2.0319 H   0  0  0  0  0  0
    3.3283    1.8322    0.0693 H   0  0  0  0  0  0
    3.1610    3.5693   -0.3189 H   0  0  0  0  0  0
    1.1702    2.4551   -1.0886 H   0  0  0  0  0  0
    2.6386   -3.0160    3.9576 C   0  0  0  0  0  0
    1.3050   -2.6733    3.2943 C   0  0  0  0  0  0
    0.3073   -2.0554    4.2713 C   0  0  0  0  0  0
   -1.0263   -1.7127    3.6081 C   0  0  0  0  0  0
    3.3379   -3.4598    3.2290 H   0  0  0  0  0  0
    2.4791   -3.7373    4.7766 H   0  0  0  0  0  0
    3.0980   -2.1046    4.3759 H   0  0  0  0  0  0
    1.4782   -1.9619    2.4640 H   0  0  0  0  0  0
    0.8607   -3.5913    2.8639 H   0  0  0  0  0  0
    0.1341   -2.7667    5.1016 H   0  0  0  0  0  0
    0.7516   -1.1374    4.7017 H   0  0  0  0  0  0
   -1.4856   -2.6241    3.1897 H   0  0  0  0  0  0
   -0.8668   -0.9914    2.7890 H   0  0  0  0  0  0
   -1.7255   -1.2689    4.3366 H   0  0  0  0  0  0
  1  2  1  0  0  0
  2  3  1  0  0  0
  3  4  1  0  0  0
  4  5  1  0  0  0
  1  5  1  0  0  0
  1  6  1  0  0  0
  1  7  1  0  0  0
  2  8  1  0  0  0
  2  9  1  0  0  0
  3 10  1  0  0  0
  3 11  1  0  0  0
  4 12  1  0  0  0
  4 13  1  0  0  0
  5 14  1  0  0  0
 15 16  1  0  0  0
 16 17  1  0  0  0
 17 18  1  0  0  0
 15 19  1  0  0  0
 15 20  1  0  0  0
 15 21  1  0  0  0
 16 22  1  0  0  0
 16 23  1  0  0  0
 17 24  1  0  0  0
 17 25  1  0  0  0
 18 26  1  0  0  0
 18 27  1  0  0  0
 18 28  1  0  0  0
M  END
$$$$
