


 23 22  0  0  1  0            999 V2000
    3.3469    1.9629    0.9013 C   0  0  0  0  0  0
    2.0979    1.1336    0.9269 C   0  0  0  0  0  0
    2.0344   -0.0698    0.8090 O   0  0  0  0  0  0
    0.9973    1.9109    1.1043 O   0  0  0  0  0  0
    4.2300    1.3180    0.7568 H   0  0  0  0  0  0
    3.4634    2.5112    1.8513 H   0  0  0  0  0  0
    3.3060    2.6936    0.0761 H   0  0  0  0  0  0
    0.2269    1.2797    1.1078 H   0  0  0  0  0  0
    0.3448   -2.0416    0.3220 C   0  0  0  0  0  0
   -0.2931   -0.6801    0.4391 C   0  0  0  0  0  0
   -0.4856    0.1227   -0.6907 C   0  0  0  0  0  0
   -1.0451    1.3959   -0.5824 C   0  0  0  0  0  0
   -1.4251    1.8883    0.6661 C   0  0  0  0  0  0
   -1.2431    1.0981    1.8010 C   0  0  0  0  0  0
   -0.6829   -0.1740    1.6842 C   0  0  0  0  0  0
    0.1158   -2.4911   -0.6589 H   0  0  0  0  0  0
   -0.0312   -2.7124    1.1127 H   0  0  0  0  0  0
    1.4399   -1.9574    0.4234 H   0  0  0  0  0  0
   -0.1930   -0.2596   -1.6775 H   0  0  0  0  0  0
   -1.1894    2.0078   -1.4827 H   0  0  0  0  0  0
   -1.8685    2.8889    0.7543 H   0  0  0  0  0  0
   -1.5441    1.4742    2.7877 H   0  0  0  0  0  0
   -0.5468   -0.7918    2.5816 H   0  0  0  0  0  0
  1  2  1  0  0  0
  2  3  2  0  0  0
  2  4  1  0  0  0
  1  5  1  0  0  0
  1  6  1  0  0  0
  1  7  1  0  0  0
  4  8  1  0  0  0
  9 10  1  0  0  0
 10 11  1  0  0  0
 11 12  2  0  0  0
 12 13  1  0  0  0
 13 14  2  0  0  0
 14 15  1  0  0  0
 10 15  2  0  0  0
  9 16  1  0  0  0
  9 17  1  0  0  0
  9 18  1  0  0  0
 11 19  1  0  0  0
 12 20  1  0  0  0
 13 21  1  0  0  0
 14 22  1  0  0  0
 15 23  1  0  0  0
M  END
$$$$
