


 24 22  0  0  1  0            999 V2000
    0.0000    0.0000    0.0000 C   0  0  0  0  0  0
    1.4248    0.6090    0.2805 C   0  0  0  0  0  0
    2.3218   -0.4475    0.9864 C   0  0  0  0  0  0
    1.9598   -1.6051    1.2320 O   0  0  0  0  0  0
    3.5302   -0.0480    1.3378 N   0  0  0  0  0  0
    4.1578    1.2977    1.1786 C   0  0  0  0  0  0
    4.9257    1.5149   -0.1264 C   0  0  0  0  0  0
    4.4218   -0.9705    2.0673 C   0  0  0  0  0  0
   -0.5052    0.7951   -0.5738 H   0  0  0  0  0  0
   -0.6100   -0.2343    0.8886 H   0  0  0  0  0  0
    0.0640   -0.9026   -0.6308 H   0  0  0  0  0  0
    1.3067    1.4915    0.9383 H   0  0  0  0  0  0
    1.8022    0.9659   -0.6971 H   0  0  0  0  0  0
    3.3563    2.0576    1.2535 H   0  0  0  0  0  0
    4.8679    1.4744    2.0093 H   0  0  0  0  0  0
    4.4240    1.0562   -0.9950 H   0  0  0  0  0  0
    5.8931    1.0084    0.0290 H   0  0  0  0  0  0
    5.1172    2.5776   -0.3515 H   0  0  0  0  0  0
    5.4763   -0.6470    2.0654 H   0  0  0  0  0  0
    4.3643   -1.9852    1.6387 H   0  0  0  0  0  0
    4.0674   -1.0090    3.1112 H   0  0  0  0  0  0
    5.0151   -2.5684   -0.8288 O   0  0  0  0  0  0
    4.0820   -2.2576   -0.7981 H   0  0  0  0  0  0
    5.5447   -1.7505   -0.9657 H   0  0  0  0  0  0
  1  2  1  0  0  0
  2  3  1  0  0  0
  3  4  2  0  0  0
  3  5  1  0  0  0
  5  6  1  0  0  0
  6  7  1  0  0  0
  5  8  1  0  0  0
  1  9  1  0  0  0
  1 10  1  0  0  0
  1 11  1  0  0  0
  2 12  1  0  0  0
  2 13  1  0  0  0
  6 14  1  0  0  0
  6 15  1  0  0  0
  7 16  1  0  0  0
  7 17  1  0  0  0
  7 18  1  0  0  0
  8 19  1  0  0  0
  8 20  1  0  0  0
  8 21  1  0  0  0
 22 23  1  0  0  0
 22 24  1  0  0  0
M  END
$$$$
