


 18 16  0  0  1  0            999 V2000
    3.6236    4.2589    1.7932 C   0  0  0  0  0  0
    3.2239    3.2317    2.8031 C   0  0  0  0  0  0
    2.1476    3.5420    3.7764 O   0  0  0  0  0  0
    2.8430    4.6019    1.0935 H   0  0  0  0  0  0
    4.4925    3.9126    1.2086 H   0  0  0  0  0  0
    3.9370    5.1129    2.4169 H   0  0  0  0  0  0
    2.9641    2.3020    2.2612 H   0  0  0  0  0  0
    4.0813    3.0063    3.4661 H   0  0  0  0  0  0
    1.3833    3.7340    3.1939 H   0  0  0  0  0  0
    2.2165   -0.7032    3.6080 C   0  0  0  0  0  0
    2.6179   -1.3704    4.9506 C   0  0  0  0  0  0
    3.1314   -2.6811    4.6436 O   0  0  0  0  0  0
    2.0542    0.3708    3.7998 H   0  0  0  0  0  0
    1.2648   -1.1482    3.2719 H   0  0  0  0  0  0
    2.9589   -0.8079    2.7990 H   0  0  0  0  0  0
    3.4719   -0.9225    5.4943 H   0  0  0  0  0  0
    1.7362   -1.3322    5.6189 H   0  0  0  0  0  0
    4.1045   -2.6475    4.7554 H   0  0  0  0  0  0
  1  2  1  0  0  0
  2  3  1  0  0  0
  1  4  1  0  0  0
  1  5  1  0  0  0
  1  6  1  0  0  0
  2  7  1  0  0  0
  2  8  1  0  0  0
  3  9  1  0  0  0
 10 11  1  0  0  0
 11 12  1  0  0  0
 10 13  1  0  0  0
 10 14  1  0  0  0
 10 15  1  0  0  0
 11 16  1  0  0  0
 11 17  1  0  0  0
 12 18  1  0  0  0
M  END
$$$$
