


 18 16  0  0  1  0            999 V2000
    1.2203   -3.9132   -0.2922 C   0  0  0  0  0  0
    0.4799   -4.9200   -1.1699 C   0  0  0  0  0  0
   -0.5846   -5.3895   -0.3950 O   0  0  0  0  0  0
    0.4975   -3.1539    0.0508 H   0  0  0  0  0  0
    1.9967   -3.4129   -0.8950 H   0  0  0  0  0  0
    1.6993   -4.3675    0.5915 H   0  0  0  0  0  0
    0.8552   -5.8715   -1.5934 H   0  0  0  0  0  0
   -0.0695   -4.3887   -1.9707 H   0  0  0  0  0  0
   -0.2364   -5.9639    0.3185 H   0  0  0  0  0  0
    3.8395    1.2201   -1.8233 C   0  0  0  0  0  0
    4.8795    1.7103   -0.7919 C   0  0  0  0  0  0
    4.2997    2.8700   -0.2199 O   0  0  0  0  0  0
    2.8890    0.8001   -1.4533 H   0  0  0  0  0  0
    4.3652    0.4432   -2.4035 H   0  0  0  0  0  0
    3.6130    2.0666   -2.4931 H   0  0  0  0  0  0
    5.0455    0.8648   -0.0969 H   0  0  0  0  0  0
    5.8646    2.0103   -1.1981 H   0  0  0  0  0  0
    4.9754    3.2985    0.3460 H   0  0  0  0  0  0
  1  2  1  0  0  0
  2  3  1  0  0  0
  1  4  1  0  0  0
  1  5  1  0  0  0
  1  6  1  0  0  0
  2  7  1  0  0  0
  2  8  1  0  0  0
  3  9  1  0  0  0
 10 11  1  0  0  0
 11 12  1  0  0  0
 10 13  1  0  0  0
 10 14  1  0  0  0
 10 15  1  0  0  0
 11 16  1  0  0  0
 11 17  1  0  0  0
 12 18  1  0  0  0
M  END
$$$$
