


 18 16  0  0  1  0            999 V2000
   -7.0276    9.0097   10.8642 C   0  0  0  0  0  0
   -6.6936    8.1804    9.5906 C   0  0  0  0  0  0
   -7.4258    8.7074    8.5300 O   0  0  0  0  0  0
   -6.7840    8.4903   11.8063 H   0  0  0  0  0  0
   -8.0440    9.4301   10.9468 H   0  0  0  0  0  0
   -6.3140    9.8392   10.7251 H   0  0  0  0  0  0
   -5.6429    8.3513    9.2868 H   0  0  0  0  0  0
   -6.8108    7.1006    9.8043 H   0  0  0  0  0  0
   -6.9297    8.4213    7.7348 H   0  0  0  0  0  0
   -7.2180   12.8329    7.5357 C   0  0  0  0  0  0
   -7.3317   11.3443    7.9061 C   0  0  0  0  0  0
   -6.6922   10.9156    9.0936 O   0  0  0  0  0  0
   -6.2111   13.2776    7.6052 H   0  0  0  0  0  0
   -7.9031   13.4111    8.1783 H   0  0  0  0  0  0
   -7.5655   12.9102    6.4917 H   0  0  0  0  0  0
   -8.3999   11.0802    8.0268 H   0  0  0  0  0  0
   -6.8817   10.6150    7.2054 H   0  0  0  0  0  0
   -6.9179    9.9825    9.2909 H   0  0  0  0  0  0
  1  2  1  0  0  0
  2  3  1  0  0  0
  1  4  1  0  0  0
  1  5  1  0  0  0
  1  6  1  0  0  0
  2  7  1  0  0  0
  2  8  1  0  0  0
  3  9  1  0  0  0
 10 11  1  0  0  0
 11 12  1  0  0  0
 10 13  1  0  0  0
 10 14  1  0  0  0
 10 15  1  0  0  0
 11 16  1  0  0  0
 11 17  1  0  0  0
 12 18  1  0  0  0
M  END
$$$$
