


 18 16  0  0  1  0            999 V2000
    3.9730    1.7238    1.2127 C   0  0  0  0  0  0
    2.8447    1.7043    2.2287 C   0  0  0  0  0  0
    2.2764    2.9972    2.4433 O   0  0  0  0  0  0
    3.6143    2.1358    0.2544 H   0  0  0  0  0  0
    4.3479    0.7014    1.0378 H   0  0  0  0  0  0
    4.8080    2.3478    1.5733 H   0  0  0  0  0  0
    2.0063    1.0804    1.8636 H   0  0  0  0  0  0
    3.1944    1.2716    3.1858 H   0  0  0  0  0  0
    2.9874    3.5805    2.7817 H   0  0  0  0  0  0
   -1.5225    2.3615   -0.4488 C   0  0  0  0  0  0
   -0.9548    3.5709   -1.1705 C   0  0  0  0  0  0
    0.4735    3.5776   -1.1915 O   0  0  0  0  0  0
   -1.1533    1.4327   -0.9154 H   0  0  0  0  0  0
   -2.6242    2.3675   -0.5007 H   0  0  0  0  0  0
   -1.2202    2.3666    0.6119 H   0  0  0  0  0  0
   -1.2563    3.5623   -2.2357 H   0  0  0  0  0  0
   -1.3396    4.5056   -0.7193 H   0  0  0  0  0  0
    0.7830    3.5985   -0.2619 H   0  0  0  0  0  0
  1  2  1  0  0  0
  2  3  1  0  0  0
  1  4  1  0  0  0
  1  5  1  0  0  0
  1  6  1  0  0  0
  2  7  1  0  0  0
  2  8  1  0  0  0
  3  9  1  0  0  0
 10 11  1  0  0  0
 11 12  1  0  0  0
 10 13  1  0  0  0
 10 14  1  0  0  0
 10 15  1  0  0  0
 11 16  1  0  0  0
 11 17  1  0  0  0
 12 18  1  0  0  0
M  END
$$$$
