


 18 16  0  0  1  0            999 V2000
    1.2203   -3.9132   -0.2922 C   0  0  0  0  0  0
    0.4799   -4.9200   -1.1699 C   0  0  0  0  0  0
   -0.5846   -5.3895   -0.3950 O   0  0  0  0  0  0
    0.4975   -3.1539    0.0508 H   0  0  0  0  0  0
    1.9967   -3.4129   -0.8950 H   0  0  0  0  0  0
    1.6993   -4.3675    0.5915 H   0  0  0  0  0  0
    0.8552   -5.8715   -1.5934 H   0  0  0  0  0  0
   -0.0695   -4.3887   -1.9707 H   0  0  0  0  0  0
   -0.2364   -5.9639    0.3185 H   0  0  0  0  0  0
    1.8374    1.3218    3.7194 C   0  0  0  0  0  0
    2.6534    2.2160    2.7543 C   0  0  0  0  0  0
    3.5654    1.4121    1.9997 O   0  0  0  0  0  0
    0.9296    1.8259    4.0916 H   0  0  0  0  0  0
    2.4552    1.0262    4.5839 H   0  0  0  0  0  0
    1.5359    0.4114    3.1746 H   0  0  0  0  0  0
    2.0973    2.7616    1.9679 H   0  0  0  0  0  0
    3.2850    2.9499    3.2906 H   0  0  0  0  0  0
    3.7547    1.9719    1.2178 H   0  0  0  0  0  0
  1  2  1  0  0  0
  2  3  1  0  0  0
  1  4  1  0  0  0
  1  5  1  0  0  0
  1  6  1  0  0  0
  2  7  1  0  0  0
  2  8  1  0  0  0
  3  9  1  0  0  0
 10 11  1  0  0  0
 11 12  1  0  0  0
 10 13  1  0  0  0
 10 14  1  0  0  0
 10 15  1  0  0  0
 11 16  1  0  0  0
 11 17  1  0  0  0
 12 18  1  0  0  0
M  END
$$$$
