


 18 16  0  0  1  0            999 V2000
    3.6236    4.2589    1.7932 C   0  0  0  0  0  0
    3.2239    3.2317    2.8031 C   0  0  0  0  0  0
    2.1476    3.5420    3.7764 O   0  0  0  0  0  0
    2.8430    4.6019    1.0935 H   0  0  0  0  0  0
    4.4925    3.9126    1.2086 H   0  0  0  0  0  0
    3.9370    5.1129    2.4169 H   0  0  0  0  0  0
    2.9641    2.3020    2.2612 H   0  0  0  0  0  0
    4.0813    3.0063    3.4661 H   0  0  0  0  0  0
    1.3833    3.7340    3.1939 H   0  0  0  0  0  0
   -1.4593    2.1075    6.1784 C   0  0  0  0  0  0
   -0.3620    2.5692    5.1842 C   0  0  0  0  0  0
    0.8317    2.2700    5.8488 O   0  0  0  0  0  0
   -1.1774    2.2980    7.2276 H   0  0  0  0  0  0
   -1.5443    1.0179    6.0293 H   0  0  0  0  0  0
   -2.4445    2.5663    5.9898 H   0  0  0  0  0  0
   -0.5607    2.1208    4.1918 H   0  0  0  0  0  0
   -0.6089    3.6465    5.1224 H   0  0  0  0  0  0
    1.6004    2.7202    5.4404 H   0  0  0  0  0  0
  1  2  1  0  0  0
  2  3  1  0  0  0
  1  4  1  0  0  0
  1  5  1  0  0  0
  1  6  1  0  0  0
  2  7  1  0  0  0
  2  8  1  0  0  0
  3  9  1  0  0  0
 10 11  1  0  0  0
 11 12  1  0  0  0
 10 13  1  0  0  0
 10 14  1  0  0  0
 10 15  1  0  0  0
 11 16  1  0  0  0
 11 17  1  0  0  0
 12 18  1  0  0  0
M  END
$$$$
