


 18 16  0  0  1  0            999 V2000
   -3.6179    3.1520   -1.0849 C   0  0  0  0  0  0
   -4.0281    1.7305   -1.4483 C   0  0  0  0  0  0
   -2.8976    1.1313   -2.0061 O   0  0  0  0  0  0
   -2.6690    3.1358   -0.5227 H   0  0  0  0  0  0
   -4.4053    3.5682   -0.4341 H   0  0  0  0  0  0
   -3.4978    3.8138   -1.9590 H   0  0  0  0  0  0
   -4.3710    1.0633   -0.6343 H   0  0  0  0  0  0
   -4.8299    1.7710   -2.2106 H   0  0  0  0  0  0
   -3.0284    0.1653   -2.1069 H   0  0  0  0  0  0
    2.3769   -5.6209    1.1323 C   0  0  0  0  0  0
    1.6244   -5.8058   -0.2305 C   0  0  0  0  0  0
    1.6332   -4.5437   -0.9952 O   0  0  0  0  0  0
    1.7324   -5.0846    1.8490 H   0  0  0  0  0  0
    3.3440   -5.0947    1.0668 H   0  0  0  0  0  0
    2.5560   -6.6400    1.5146 H   0  0  0  0  0  0
    2.0601   -6.6398   -0.8138 H   0  0  0  0  0  0
    0.5765   -6.0725    0.0067 H   0  0  0  0  0  0
    2.1848   -4.6895   -1.7920 H   0  0  0  0  0  0
  1  2  1  0  0  0
  2  3  1  0  0  0
  1  4  1  0  0  0
  1  5  1  0  0  0
  1  6  1  0  0  0
  2  7  1  0  0  0
  2  8  1  0  0  0
  3  9  1  0  0  0
 10 11  1  0  0  0
 11 12  1  0  0  0
 10 13  1  0  0  0
 10 14  1  0  0  0
 10 15  1  0  0  0
 11 16  1  0  0  0
 11 17  1  0  0  0
 12 18  1  0  0  0
M  END
$$$$
