


  8  6  0  0  1  0            999 V2000
    0.7483   -1.5961    1.6499 O   0  0  0  0  0  0
   -0.1346   -1.7601    1.2475 H   0  0  0  0  0  0
    0.7944   -2.2200    2.4095 H   0  0  0  0  0  0
    0.0000    0.0000    0.0000 N   0  0  0  0  0  0
   -0.1711    0.8896    0.5067 H   0  0  0  0  0  0
    0.6904    0.1605   -0.7583 H   0  0  0  0  0  0
   -0.8904   -0.3421   -0.4094 H   0  0  0  0  0  0
    0.3712   -0.7089    0.6611 H   0  0  0  0  0  0
  1  2  1  0  0  0
  1  3  1  0  0  0
  4  5  1  0  0  0
  4  6  1  0  0  0
  4  7  1  0  0  0
  4  8  1  0  0  0
M  CHG  1   4   1
M  END
$$$$
