


  8  6  0  0  1  0            999 V2000
   -2.0790    2.6960   -0.2134 O   0  0  0  0  0  0
   -2.9317    2.7542    0.2743 H   0  0  0  0  0  0
   -2.0291    3.5342   -0.7265 H   0  0  0  0  0  0
    0.0000    0.0000    0.0000 N   0  0  0  0  0  0
    0.9311    0.3233    0.3256 H   0  0  0  0  0  0
    0.1217   -0.7388   -0.7189 H   0  0  0  0  0  0
   -0.5202    0.7993   -0.4099 H   0  0  0  0  0  0
   -0.5334   -0.3839    0.8034 H   0  0  0  0  0  0
  1  2  1  0  0  0
  1  3  1  0  0  0
  4  5  1  0  0  0
  4  6  1  0  0  0
  4  7  1  0  0  0
  4  8  1  0  0  0
M  CHG  1   4   1
M  END
$$$$
