


  8  6  0  0  1  0            999 V2000
   -2.2489   -1.4110   -2.8356 O   0  0  0  0  0  0
   -1.3802   -1.6180   -3.2490 H   0  0  0  0  0  0
   -2.7764   -1.0020   -3.5586 H   0  0  0  0  0  0
    0.0000    0.0000    0.0000 N   0  0  0  0  0  0
   -0.0668   -0.9713    0.3598 H   0  0  0  0  0  0
    0.9797    0.3331    0.0817 H   0  0  0  0  0  0
   -0.6230    0.6182    0.5542 H   0  0  0  0  0  0
   -0.2902    0.0206   -0.9964 H   0  0  0  0  0  0
  1  2  1  0  0  0
  1  3  1  0  0  0
  4  5  1  0  0  0
  4  6  1  0  0  0
  4  7  1  0  0  0
  4  8  1  0  0  0
M  CHG  1   4   1
M  END
$$$$
