


  8  6  0  0  1  0            999 V2000
    5.6145    1.4244   -0.4393 O   0  0  0  0  0  0
    5.5932    2.3800   -0.2055 H   0  0  0  0  0  0
    6.2372    1.3688   -1.1992 H   0  0  0  0  0  0
    0.0000    0.0000    0.0000 N   0  0  0  0  0  0
   -0.7527    0.0724   -0.7110 H   0  0  0  0  0  0
    0.9010   -0.2123   -0.4696 H   0  0  0  0  0  0
   -0.2284   -0.7593    0.6699 H   0  0  0  0  0  0
    0.0804    0.8996    0.5117 H   0  0  0  0  0  0
  1  2  1  0  0  0
  1  3  1  0  0  0
  4  5  1  0  0  0
  4  6  1  0  0  0
  4  7  1  0  0  0
  4  8  1  0  0  0
M  CHG  1   4   1
M  END
$$$$
