


  8  6  0  0  1  0            999 V2000
    6.0951    1.5596   -0.4665 O   0  0  0  0  0  0
    6.0738    2.5151   -0.2327 H   0  0  0  0  0  0
    6.7179    1.5040   -1.2264 H   0  0  0  0  0  0
    0.0000    0.0000    0.0000 N   0  0  0  0  0  0
   -0.7527    0.0724   -0.7110 H   0  0  0  0  0  0
    0.9010   -0.2123   -0.4696 H   0  0  0  0  0  0
   -0.2284   -0.7593    0.6699 H   0  0  0  0  0  0
    0.0804    0.8996    0.5117 H   0  0  0  0  0  0
  1  2  1  0  0  0
  1  3  1  0  0  0
  4  5  1  0  0  0
  4  6  1  0  0  0
  4  7  1  0  0  0
  4  8  1  0  0  0
M  CHG  1   4   1
M  END
$$$$
