


  8  6  0  0  1  0            999 V2000
    2.2156    1.0894   -2.3454 O   0  0  0  0  0  0
    2.4662    1.2364   -3.2856 H   0  0  0  0  0  0
    2.2266    1.9870   -1.9425 H   0  0  0  0  0  0
    0.0000    0.0000    0.0000 N   0  0  0  0  0  0
   -0.3356    0.5927    0.7833 H   0  0  0  0  0  0
   -0.8030   -0.5058   -0.4205 H   0  0  0  0  0  0
    0.6925   -0.6860    0.3569 H   0  0  0  0  0  0
    0.4468    0.5991   -0.7203 H   0  0  0  0  0  0
  1  2  1  0  0  0
  1  3  1  0  0  0
  4  5  1  0  0  0
  4  6  1  0  0  0
  4  7  1  0  0  0
  4  8  1  0  0  0
M  CHG  1   4   1
M  END
$$$$
