


  8  6  0  0  1  0            999 V2000
    2.2259   -1.2554   -2.4333 O   0  0  0  0  0  0
    2.3034   -0.5289   -3.0924 H   0  0  0  0  0  0
    3.0337   -1.8007   -2.5690 H   0  0  0  0  0  0
    0.0000    0.0000    0.0000 N   0  0  0  0  0  0
    0.7757   -0.0591   -0.6873 H   0  0  0  0  0  0
    0.3833    0.2341    0.9358 H   0  0  0  0  0  0
   -0.4921   -0.9128    0.0461 H   0  0  0  0  0  0
   -0.6678    0.7380   -0.2946 H   0  0  0  0  0  0
  1  2  1  0  0  0
  1  3  1  0  0  0
  4  5  1  0  0  0
  4  6  1  0  0  0
  4  7  1  0  0  0
  4  8  1  0  0  0
M  CHG  1   4   1
M  END
$$$$
