


 25 24  0  0  1  0            999 V2000
    0.4046    2.5177    1.1780 C   0  0  0  0  0  0
    1.7473    2.3166    0.6428 N   0  0  0  0  0  0
    2.3876    3.2055   -0.1084 C   0  0  0  0  0  0
    3.6196    2.9469   -0.5622 N   0  0  0  0  0  0
    4.0738    2.0600   -0.3307 H   0  0  0  0  0  0
    4.1073    3.6358   -1.1403 H   0  0  0  0  0  0
    1.7992    4.3641   -0.4130 N   0  0  0  0  0  0
    0.1263    1.6233    1.7604 H   0  0  0  0  0  0
   -0.3332    2.6548    0.3697 H   0  0  0  0  0  0
    0.3652    3.3968    1.8430 H   0  0  0  0  0  0
    2.2276    1.4391    0.8571 H   0  0  0  0  0  0
    0.8574    4.5648   -0.0676 H   0  0  0  0  0  0
    2.2891    5.0511   -0.9913 H   0  0  0  0  0  0
    1.5665   -1.9542    4.1881 F   0  0  0  0  0  0
    2.6067   -1.6927    3.3663 C   0  0  0  0  0  0
    2.6071   -2.2399    2.0909 C   0  0  0  0  0  0
    3.6808   -1.9698    1.2429 C   0  0  0  0  0  0
    4.7121   -1.1632    1.7032 C   0  0  0  0  0  0
    4.7115   -0.6162    2.9786 C   0  0  0  0  0  0
    3.6380   -0.8862    3.8266 C   0  0  0  0  0  0
    5.7523   -0.9017    0.8815 F   0  0  0  0  0  0
    1.7694   -2.8726    1.7692 H   0  0  0  0  0  0
    3.7236   -2.3811    0.2257 H   0  0  0  0  0  0
    5.5493    0.0166    3.3003 H   0  0  0  0  0  0
    3.5952   -0.4749    4.8438 H   0  0  0  0  0  0
  1  2  1  0  0  0
  2  3  1  0  0  0
  3  4  2  0  0  0
  4  5  1  0  0  0
  4  6  1  0  0  0
  3  7  1  0  0  0
  1  8  1  0  0  0
  1  9  1  0  0  0
  1 10  1  0  0  0
  2 11  1  0  0  0
  7 12  1  0  0  0
  7 13  1  0  0  0
 14 15  1  0  0  0
 15 16  1  0  0  0
 16 17  2  0  0  0
 17 18  1  0  0  0
 18 19  2  0  0  0
 19 20  1  0  0  0
 15 20  2  0  0  0
 18 21  1  0  0  0
 16 22  1  0  0  0
 17 23  1  0  0  0
 19 24  1  0  0  0
 20 25  1  0  0  0
M  CHG  1   4   1
M  END
$$$$
