


 21 21  0  0  1  0            999 V2000
    2.9170    1.1047    4.3709 C   0  0  0  0  0  0
    2.9796    1.7087    3.1803 N   0  0  0  0  0  0
    2.5141    1.3551    2.3250 H   0  0  0  0  0  0
    3.7410    2.8483    3.2624 C   0  0  0  0  0  0
    4.1596    2.9396    4.5633 C   0  0  0  0  0  0
    3.6346    1.8515    5.2157 N   0  0  0  0  0  0
    3.7670    1.6284    6.2187 H   0  0  0  0  0  0
    2.3849    0.1832    4.6068 H   0  0  0  0  0  0
    3.9239    3.4959    2.4049 H   0  0  0  0  0  0
    4.7798    3.6826    5.0647 H   0  0  0  0  0  0
    1.5575   -0.7098   -1.5848 C   0  0  0  0  0  0
    0.2659   -0.3060   -1.9124 C   0  0  0  0  0  0
   -0.3957    0.5575   -1.0434 C   0  0  0  0  0  0
    0.2610    0.9783    0.1122 C   0  0  0  0  0  0
    1.5050    0.5981    0.4416 N   0  0  0  0  0  0
    2.1296   -0.2340   -0.4058 C   0  0  0  0  0  0
    2.1235   -1.3896   -2.2353 H   0  0  0  0  0  0
   -0.2183   -0.6593   -2.8324 H   0  0  0  0  0  0
   -1.4152    0.9064   -1.2543 H   0  0  0  0  0  0
   -0.2350    1.6591    0.8165 H   0  0  0  0  0  0
    3.1464   -0.5348   -0.1208 H   0  0  0  0  0  0
  1  2  1  0  0  0
  2  3  1  0  0  0
  2  4  1  0  0  0
  4  5  2  0  0  0
  5  6  1  0  0  0
  6  7  1  0  0  0
  1  6  2  0  0  0
  1  8  1  0  0  0
  4  9  1  0  0  0
  5 10  1  0  0  0
 11 12  1  0  0  0
 12 13  2  0  0  0
 13 14  1  0  0  0
 14 15  2  0  0  0
 15 16  1  0  0  0
 11 16  2  0  0  0
 11 17  1  0  0  0
 12 18  1  0  0  0
 13 19  1  0  0  0
 14 20  1  0  0  0
 16 21  1  0  0  0
M  CHG  1   6   1
M  END
$$$$
