


 23 21  0  0  1  0            999 V2000
    0.9012    3.0669   -1.3162 C   0  0  0  0  0  0
    2.0992    2.2551   -1.7835 C   0  0  0  0  0  0
    3.1492    2.2859   -0.7576 N   0  0  0  0  0  0
    0.5259    2.6681   -0.3588 H   0  0  0  0  0  0
    0.0869    3.0231   -2.0590 H   0  0  0  0  0  0
    1.1875    4.1220   -1.1699 H   0  0  0  0  0  0
    1.7995    1.1977   -1.9164 H   0  0  0  0  0  0
    2.4374    2.6351   -2.7667 H   0  0  0  0  0  0
    3.9637    1.7427   -1.0645 H   0  0  0  0  0  0
    3.4801    3.2491   -0.6332 H   0  0  0  0  0  0
   -1.0262    1.0635    2.5408 O   0  0  0  0  0  0
   -0.6812    1.7163    3.7575 C   0  0  0  0  0  0
    0.7003    2.3591    3.7213 C   0  0  0  0  0  0
    1.8305    1.3415    3.6703 C   0  0  0  0  0  0
    1.7787    0.5016    2.5047 O   0  0  0  0  0  0
   -0.2682    0.4822    2.3220 H   0  0  0  0  0  0
   -1.4567    2.4899    3.9175 H   0  0  0  0  0  0
   -0.7312    1.0088    4.6075 H   0  0  0  0  0  0
    0.7631    3.0380    2.8492 H   0  0  0  0  0  0
    0.8344    2.9707    4.6343 H   0  0  0  0  0  0
    2.8155    1.8425    3.7354 H   0  0  0  0  0  0
    1.7508    0.6434    4.5257 H   0  0  0  0  0  0
    1.9882    1.0618    1.7284 H   0  0  0  0  0  0
  1  2  1  0  0  0
  2  3  1  0  0  0
  1  4  1  0  0  0
  1  5  1  0  0  0
  1  6  1  0  0  0
  2  7  1  0  0  0
  2  8  1  0  0  0
  3  9  1  0  0  0
  3 10  1  0  0  0
 11 12  1  0  0  0
 12 13  1  0  0  0
 13 14  1  0  0  0
 14 15  1  0  0  0
 11 16  1  0  0  0
 12 17  1  0  0  0
 12 18  1  0  0  0
 13 19  1  0  0  0
 13 20  1  0  0  0
 14 21  1  0  0  0
 14 22  1  0  0  0
 15 23  1  0  0  0
M  END
$$$$
