


 19 17  0  0  1  0            999 V2000
    2.9838    3.3340    3.0401 C   0  0  0  0  0  0
    1.5963    2.9829    3.3471 C   0  0  0  0  0  0
    0.4427    2.6906    3.6025 C   0  0  0  0  0  0
   -0.9445    2.3386    3.9097 C   0  0  0  0  0  0
    3.2806    2.9078    2.0670 H   0  0  0  0  0  0
    3.6598    2.9401    3.8176 H   0  0  0  0  0  0
    3.1007    4.4299    2.9945 H   0  0  0  0  0  0
   -1.3872    1.7643    3.0785 H   0  0  0  0  0  0
   -0.9904    1.7249    4.8250 H   0  0  0  0  0  0
   -1.5454    3.2501    4.0667 H   0  0  0  0  0  0
    0.1233    3.1342   -0.6314 C   0  0  0  0  0  0
    0.4003    1.6755   -0.9226 C   0  0  0  0  0  0
    0.2907    1.1804   -2.0357 O   0  0  0  0  0  0
    0.7872    0.9399    0.1624 N   0  0  0  0  0  0
   -0.1799    3.6384   -1.5644 H   0  0  0  0  0  0
    1.0238    3.6349   -0.2376 H   0  0  0  0  0  0
   -0.6896    3.2409    0.1064 H   0  0  0  0  0  0
    0.8780    1.3569    1.0921 H   0  0  0  0  0  0
    0.9883   -0.0537    0.0256 H   0  0  0  0  0  0
  1  2  1  0  0  0
  2  3  3  0  0  0
  3  4  1  0  0  0
  1  5  1  0  0  0
  1  6  1  0  0  0
  1  7  1  0  0  0
  4  8  1  0  0  0
  4  9  1  0  0  0
  4 10  1  0  0  0
 11 12  1  0  0  0
 12 13  2  0  0  0
 12 14  1  0  0  0
 11 15  1  0  0  0
 11 16  1  0  0  0
 11 17  1  0  0  0
 14 18  1  0  0  0
 14 19  1  0  0  0
M  END
$$$$
