


 25 24  0  0  1  0            999 V2000
    4.1067   -0.2140    4.5497 C   0  0  0  0  0  0
    3.8576    0.3517    2.8527 S   0  0  0  0  0  0
    2.1172   -0.5780    2.3413 S   0  0  0  0  0  0
    0.8733    0.5620    2.9855 C   0  0  0  0  0  0
    5.0599    0.2135    4.9037 H   0  0  0  0  0  0
    4.1733   -1.3137    4.6022 H   0  0  0  0  0  0
    3.2993    0.1222    5.2217 H   0  0  0  0  0  0
    0.9290    0.6598    4.0827 H   0  0  0  0  0  0
    0.9749    1.5647    2.5373 H   0  0  0  0  0  0
   -0.1168    0.1558    2.7183 H   0  0  0  0  0  0
    3.0241    1.7678   -0.8932 C   0  0  0  0  0  0
    1.9219    2.5926   -0.2774 C   0  0  0  0  0  0
    0.5814    2.3582   -0.6033 C   0  0  0  0  0  0
   -0.4387    3.1402   -0.0612 C   0  0  0  0  0  0
   -0.1316    4.1744    0.8228 C   0  0  0  0  0  0
    1.1998    4.4176    1.1603 C   0  0  0  0  0  0
    2.2140    3.6311    0.6139 C   0  0  0  0  0  0
    2.6653    0.7481   -1.1129 H   0  0  0  0  0  0
    3.8832    1.6978   -0.2051 H   0  0  0  0  0  0
    3.3641    2.2314   -1.8345 H   0  0  0  0  0  0
    0.3313    1.5431   -1.2951 H   0  0  0  0  0  0
   -1.4840    2.9370   -0.3289 H   0  0  0  0  0  0
   -0.9325    4.7898    1.2535 H   0  0  0  0  0  0
    1.4517    5.2257    1.8597 H   0  0  0  0  0  0
    3.2593    3.8258    0.8877 H   0  0  0  0  0  0
  1  2  1  0  0  0
  2  3  1  0  0  0
  3  4  1  0  0  0
  1  5  1  0  0  0
  1  6  1  0  0  0
  1  7  1  0  0  0
  4  8  1  0  0  0
  4  9  1  0  0  0
  4 10  1  0  0  0
 11 12  1  0  0  0
 12 13  1  0  0  0
 13 14  2  0  0  0
 14 15  1  0  0  0
 15 16  2  0  0  0
 16 17  1  0  0  0
 12 17  2  0  0  0
 11 18  1  0  0  0
 11 19  1  0  0  0
 11 20  1  0  0  0
 13 21  1  0  0  0
 14 22  1  0  0  0
 15 23  1  0  0  0
 16 24  1  0  0  0
 17 25  1  0  0  0
M  END
$$$$
