


 10  8  0  0  1  0            999 V2000
    3.6237   -5.9479    0.0809 O   0  0  0  0  0  0
    3.6389   -5.4336    0.9197 H   0  0  0  0  0  0
    2.6897   -6.2434   -0.0119 H   0  0  0  0  0  0
    0.0000    0.0000    0.0000 O   0  0  0  0  0  0
    0.0721   -1.1404    0.5019 C   0  0  0  0  0  0
   -0.1454   -2.1495   -0.2075 O   0  0  0  0  0  0
    0.3987   -1.2630    1.9653 C   0  0  0  0  0  0
    0.4954   -0.3375    2.5575 H   0  0  0  0  0  0
    1.3615   -1.8005    1.9929 H   0  0  0  0  0  0
   -0.3730   -1.8992    2.4304 H   0  0  0  0  0  0
  1  2  1  0  0  0
  1  3  1  0  0  0
  4  5  1  0  0  0
  5  6  2  0  0  0
  5  7  1  0  0  0
  7  8  1  0  0  0
  7  9  1  0  0  0
  7 10  1  0  0  0
M  CHG  1   4  -1
M  END
$$$$
