


 10  8  0  0  1  0            999 V2000
    2.2763    0.4958    3.2395 O   0  0  0  0  0  0
    3.2472    0.3360    3.2379 H   0  0  0  0  0  0
    1.9757    0.2059    2.3486 H   0  0  0  0  0  0
    0.0000    0.0000    0.0000 O   0  0  0  0  0  0
    0.9156   -0.8136    0.3495 C   0  0  0  0  0  0
    2.1054   -0.4453    0.5755 O   0  0  0  0  0  0
    0.6100   -2.2869    0.5313 C   0  0  0  0  0  0
    0.9028   -2.5708    1.5561 H   0  0  0  0  0  0
    1.0935   -2.9800   -0.1775 H   0  0  0  0  0  0
   -0.4838   -2.3925    0.4359 H   0  0  0  0  0  0
  1  2  1  0  0  0
  1  3  1  0  0  0
  4  5  1  0  0  0
  5  6  2  0  0  0
  5  7  1  0  0  0
  7  8  1  0  0  0
  7  9  1  0  0  0
  7 10  1  0  0  0
M  CHG  1   4  -1
M  END
$$$$
