


 16 14  0  0  1  0            999 V2000
    0.0000    0.0000    0.0000 C   0  0  0  0  0  0
   -0.7702   -1.3166   -0.1062 C   0  0  0  0  0  0
   -0.4764   -2.2711   -0.7792 O   0  0  0  0  0  0
   -1.9616   -1.1312    0.5606 O   0  0  0  0  0  0
    0.6328   -0.0338    0.9028 H   0  0  0  0  0  0
   -0.6594    0.8818    0.0653 H   0  0  0  0  0  0
    0.6519    0.1128   -0.8826 H   0  0  0  0  0  0
   -2.6249   -1.8563    0.3982 H   0  0  0  0  0  0
   -0.0121   -0.0482   -4.0944 C   0  0  0  0  0  0
    0.4903   -0.6489   -5.3194 C   0  0  0  0  0  0
    1.5914   -1.2401   -5.3098 O   0  0  0  0  0  0
   -0.2050   -0.3832   -6.4174 O   0  0  0  0  0  0
    0.5973    0.7278   -3.6014 H   0  0  0  0  0  0
   -0.1500   -0.8867   -3.3912 H   0  0  0  0  0  0
   -1.0012    0.3788   -4.3310 H   0  0  0  0  0  0
    0.3167   -0.7614   -7.1769 H   0  0  0  0  0  0
  1  2  1  0  0  0
  2  3  2  0  0  0
  2  4  1  0  0  0
  1  5  1  0  0  0
  1  6  1  0  0  0
  1  7  1  0  0  0
  4  8  1  0  0  0
  9 10  1  0  0  0
 10 11  2  0  0  0
 10 12  1  0  0  0
  9 13  1  0  0  0
  9 14  1  0  0  0
  9 15  1  0  0  0
 12 16  1  0  0  0
M  END
$$$$
