


 16 14  0  0  1  0            999 V2000
    0.0000    0.0000    0.0000 C   0  0  0  0  0  0
   -1.2316    0.8613   -0.2471 C   0  0  0  0  0  0
   -1.5395    1.7578    0.5475 O   0  0  0  0  0  0
   -2.0505    0.3917   -1.2694 O   0  0  0  0  0  0
   -0.0279   -0.5905    0.9312 H   0  0  0  0  0  0
    0.8497    0.7013    0.0534 H   0  0  0  0  0  0
    0.1634   -0.6869   -0.8474 H   0  0  0  0  0  0
   -1.7125   -0.4685   -1.6406 H   0  0  0  0  0  0
   -3.2286   -6.1965   -0.5337 C   0  0  0  0  0  0
   -2.9892   -6.4076   -2.0334 C   0  0  0  0  0  0
   -2.7758   -5.4335   -2.7841 O   0  0  0  0  0  0
   -2.8751   -7.7136   -2.4191 O   0  0  0  0  0  0
   -2.3387   -5.8534    0.0205 H   0  0  0  0  0  0
   -3.5464   -7.1690   -0.1216 H   0  0  0  0  0  0
   -4.0415   -5.4669   -0.3803 H   0  0  0  0  0  0
   -3.2000   -8.3796   -1.7536 H   0  0  0  0  0  0
  1  2  1  0  0  0
  2  3  2  0  0  0
  2  4  1  0  0  0
  1  5  1  0  0  0
  1  6  1  0  0  0
  1  7  1  0  0  0
  4  8  1  0  0  0
  9 10  1  0  0  0
 10 11  2  0  0  0
 10 12  1  0  0  0
  9 13  1  0  0  0
  9 14  1  0  0  0
  9 15  1  0  0  0
 12 16  1  0  0  0
M  END
$$$$
