


 16 14  0  0  1  0            999 V2000
    0.1636  -10.5601    2.7777 C   0  0  0  0  0  0
    0.0696   -9.9085    4.2027 C   0  0  0  0  0  0
   -0.3982  -10.4605    5.2213 O   0  0  0  0  0  0
    0.3463   -8.5809    4.0618 O   0  0  0  0  0  0
   -0.8849  -10.8121    2.5459 H   0  0  0  0  0  0
    0.7573  -11.4896    2.7767 H   0  0  0  0  0  0
    0.5490   -9.8956    1.9861 H   0  0  0  0  0  0
    0.3116   -8.0699    4.9160 H   0  0  0  0  0  0
   -3.3353  -13.1742    1.1486 C   0  0  0  0  0  0
   -4.7630  -13.3022    1.6436 C   0  0  0  0  0  0
   -5.6635  -13.5274    0.8458 O   0  0  0  0  0  0
   -4.9317  -12.9858    2.9108 O   0  0  0  0  0  0
   -2.8537  -14.1058    1.4904 H   0  0  0  0  0  0
   -2.7742  -12.3173    1.5578 H   0  0  0  0  0  0
   -3.2837  -13.1350    0.0475 H   0  0  0  0  0  0
   -5.9183  -12.9665    3.0466 H   0  0  0  0  0  0
  1  2  1  0  0  0
  2  3  2  0  0  0
  2  4  1  0  0  0
  1  5  1  0  0  0
  1  6  1  0  0  0
  1  7  1  0  0  0
  4  8  1  0  0  0
  9 10  1  0  0  0
 10 11  2  0  0  0
 10 12  1  0  0  0
  9 13  1  0  0  0
  9 14  1  0  0  0
  9 15  1  0  0  0
 12 16  1  0  0  0
M  END
$$$$
