


 16 14  0  0  1  0            999 V2000
    0.3124   -2.6713   -3.0392 C   0  0  0  0  0  0
    0.2465   -3.3688   -1.6860 C   0  0  0  0  0  0
   -0.7415   -3.5333   -0.9859 O   0  0  0  0  0  0
    1.5135   -3.4829   -1.2189 O   0  0  0  0  0  0
    0.8474   -3.3485   -3.7260 H   0  0  0  0  0  0
    0.8342   -1.6996   -3.0257 H   0  0  0  0  0  0
   -0.7099   -2.5163   -3.4232 H   0  0  0  0  0  0
    1.4771   -3.7277   -0.2542 H   0  0  0  0  0  0
   -1.7348    3.8965   -3.0357 C   0  0  0  0  0  0
   -1.0513    3.1536   -4.1924 C   0  0  0  0  0  0
    0.1334    3.2392   -4.3159 O   0  0  0  0  0  0
   -1.9243    2.3368   -4.8808 O   0  0  0  0  0  0
   -0.9954    4.5533   -2.5473 H   0  0  0  0  0  0
   -2.1052    3.1703   -2.2928 H   0  0  0  0  0  0
   -2.5826    4.5140   -3.3771 H   0  0  0  0  0  0
   -1.4888    1.8093   -5.6048 H   0  0  0  0  0  0
  1  2  1  0  0  0
  2  3  2  0  0  0
  2  4  1  0  0  0
  1  5  1  0  0  0
  1  6  1  0  0  0
  1  7  1  0  0  0
  4  8  1  0  0  0
  9 10  1  0  0  0
 10 11  2  0  0  0
 10 12  1  0  0  0
  9 13  1  0  0  0
  9 14  1  0  0  0
  9 15  1  0  0  0
 12 16  1  0  0  0
M  END
$$$$
