


 26 24  0  0  1  0            999 V2000
    0.7831   -1.3338    3.1764 C   0  0  0  0  0  0
   -0.4300   -0.9093    4.0903 C   0  0  0  0  0  0
   -0.1209   -0.6668    5.5241 C   0  0  0  0  0  0
    0.3440    0.6933    5.7424 N   0  0  0  0  0  0
    1.4388   -0.4790    2.9397 H   0  0  0  0  0  0
    0.3472   -1.7135    2.2370 H   0  0  0  0  0  0
    1.3954   -2.1323    3.6281 H   0  0  0  0  0  0
   -0.8395   -0.0077    3.5956 H   0  0  0  0  0  0
   -1.1883   -1.7117    4.0088 H   0  0  0  0  0  0
   -1.0059   -0.7599    6.1825 H   0  0  0  0  0  0
    0.6303   -1.4057    5.8635 H   0  0  0  0  0  0
    0.8868    0.6302    6.6107 H   0  0  0  0  0  0
    1.0145    0.9358    5.0046 H   0  0  0  0  0  0
   -2.2430    3.7927    4.5118 C   0  0  0  0  0  0
   -2.1473    3.8296    3.0201 C   0  0  0  0  0  0
   -3.4394    4.2109    2.2540 C   0  0  0  0  0  0
   -3.3022    3.9082    0.8543 N   0  0  0  0  0  0
   -3.2778    3.4705    4.7166 H   0  0  0  0  0  0
   -2.0985    4.8014    4.9343 H   0  0  0  0  0  0
   -1.5515    3.0974    5.0169 H   0  0  0  0  0  0
   -1.3563    4.5604    2.7636 H   0  0  0  0  0  0
   -1.7544    2.8180    2.8018 H   0  0  0  0  0  0
   -4.2191    3.6329    2.7864 H   0  0  0  0  0  0
   -3.6851    5.2850    2.3602 H   0  0  0  0  0  0
   -2.8556    3.0009    0.6811 H   0  0  0  0  0  0
   -2.6568    4.6173    0.4891 H   0  0  0  0  0  0
  1  2  1  0  0  0
  2  3  1  0  0  0
  3  4  1  0  0  0
  1  5  1  0  0  0
  1  6  1  0  0  0
  1  7  1  0  0  0
  2  8  1  0  0  0
  2  9  1  0  0  0
  3 10  1  0  0  0
  3 11  1  0  0  0
  4 12  1  0  0  0
  4 13  1  0  0  0
 14 15  1  0  0  0
 15 16  1  0  0  0
 16 17  1  0  0  0
 14 18  1  0  0  0
 14 19  1  0  0  0
 14 20  1  0  0  0
 15 21  1  0  0  0
 15 22  1  0  0  0
 16 23  1  0  0  0
 16 24  1  0  0  0
 17 25  1  0  0  0
 17 26  1  0  0  0
M  END
$$$$
