


 26 24  0  0  1  0            999 V2000
    3.2355    0.2921   -4.9811 C   0  0  0  0  0  0
    2.2698    1.4271   -5.1866 C   0  0  0  0  0  0
    2.6985    2.7390   -4.5536 C   0  0  0  0  0  0
    2.8201    2.5298   -3.1423 N   0  0  0  0  0  0
    4.2665    0.6830   -5.0121 H   0  0  0  0  0  0
    3.0932   -0.3929   -5.8337 H   0  0  0  0  0  0
    3.1034   -0.2778   -4.0460 H   0  0  0  0  0  0
    2.1762    1.6205   -6.2726 H   0  0  0  0  0  0
    1.2805    1.0944   -4.8176 H   0  0  0  0  0  0
    3.6880    3.1691   -4.8015 H   0  0  0  0  0  0
    1.9488    3.5492   -4.6378 H   0  0  0  0  0  0
    1.8700    2.6464   -2.7729 H   0  0  0  0  0  0
    3.3954    3.2407   -2.6773 H   0  0  0  0  0  0
    1.9664    5.6371    2.5710 C   0  0  0  0  0  0
    2.2072    4.4115    1.7048 C   0  0  0  0  0  0
    3.6909    4.2279    1.2949 C   0  0  0  0  0  0
    4.0700    5.3184    0.4354 N   0  0  0  0  0  0
    0.8992    5.8041    2.7939 H   0  0  0  0  0  0
    2.3705    6.5420    2.0868 H   0  0  0  0  0  0
    2.5034    5.4768    3.5210 H   0  0  0  0  0  0
    1.8093    3.6135    2.3608 H   0  0  0  0  0  0
    1.5297    4.5002    0.8338 H   0  0  0  0  0  0
    4.3176    4.3061    2.2041 H   0  0  0  0  0  0
    3.9298    3.2652    0.8033 H   0  0  0  0  0  0
    5.0801    5.3316    0.2561 H   0  0  0  0  0  0
    3.8310    6.2526    0.7859 H   0  0  0  0  0  0
  1  2  1  0  0  0
  2  3  1  0  0  0
  3  4  1  0  0  0
  1  5  1  0  0  0
  1  6  1  0  0  0
  1  7  1  0  0  0
  2  8  1  0  0  0
  2  9  1  0  0  0
  3 10  1  0  0  0
  3 11  1  0  0  0
  4 12  1  0  0  0
  4 13  1  0  0  0
 14 15  1  0  0  0
 15 16  1  0  0  0
 16 17  1  0  0  0
 14 18  1  0  0  0
 14 19  1  0  0  0
 14 20  1  0  0  0
 15 21  1  0  0  0
 15 22  1  0  0  0
 16 23  1  0  0  0
 16 24  1  0  0  0
 17 25  1  0  0  0
 17 26  1  0  0  0
M  END
$$$$
