


 26 24  0  0  1  0            999 V2000
    0.0000    0.0000    0.0000 C   0  0  0  0  0  0
    0.9758    1.1878    0.3964 C   0  0  0  0  0  0
    0.3794    2.5135    0.1247 C   0  0  0  0  0  0
    1.1849    3.5654    0.8424 N   0  0  0  0  0  0
    0.4190   -1.0159    0.0945 H   0  0  0  0  0  0
   -0.2083    0.1970   -1.0651 H   0  0  0  0  0  0
   -0.9505    0.0419    0.5580 H   0  0  0  0  0  0
    1.1990    1.1822    1.4806 H   0  0  0  0  0  0
    1.9406    1.2113   -0.1458 H   0  0  0  0  0  0
    0.3105    2.7543   -0.9536 H   0  0  0  0  0  0
   -0.6462    2.5352    0.5406 H   0  0  0  0  0  0
    2.1136    3.7883    0.4676 H   0  0  0  0  0  0
    0.7237    4.4656    1.0142 H   0  0  0  0  0  0
   -1.8184   -2.0349    2.8213 C   0  0  0  0  0  0
   -1.2482   -3.1954    3.5640 C   0  0  0  0  0  0
    0.0762   -3.6459    2.9531 C   0  0  0  0  0  0
    0.7439   -4.3146    4.0693 N   0  0  0  0  0  0
   -2.8281   -1.8154    3.2072 H   0  0  0  0  0  0
   -1.8966   -2.2749    1.7476 H   0  0  0  0  0  0
   -1.1943   -1.1326    2.9356 H   0  0  0  0  0  0
   -1.1251   -2.8730    4.6158 H   0  0  0  0  0  0
   -1.9274   -4.0695    3.5572 H   0  0  0  0  0  0
   -0.0736   -4.2821    2.0597 H   0  0  0  0  0  0
    0.6565   -2.7568    2.6397 H   0  0  0  0  0  0
   -0.0301   -4.7292    4.6000 H   0  0  0  0  0  0
    1.1304   -3.5723    4.6629 H   0  0  0  0  0  0
  1  2  1  0  0  0
  2  3  1  0  0  0
  3  4  1  0  0  0
  1  5  1  0  0  0
  1  6  1  0  0  0
  1  7  1  0  0  0
  2  8  1  0  0  0
  2  9  1  0  0  0
  3 10  1  0  0  0
  3 11  1  0  0  0
  4 12  1  0  0  0
  4 13  1  0  0  0
 14 15  1  0  0  0
 15 16  1  0  0  0
 16 17  1  0  0  0
 14 18  1  0  0  0
 14 19  1  0  0  0
 14 20  1  0  0  0
 15 21  1  0  0  0
 15 22  1  0  0  0
 16 23  1  0  0  0
 16 24  1  0  0  0
 17 25  1  0  0  0
 17 26  1  0  0  0
M  END
$$$$
