


 17 15  0  0  1  0            999 V2000
    1.5017    4.5368   -0.4329 C   0  0  0  0  0  0
    2.1430    3.2568   -0.1411 C   0  0  0  0  0  0
    2.6763    2.1921    0.1016 C   0  0  0  0  0  0
    0.4532    4.5269   -0.0908 H   0  0  0  0  0  0
    1.5159    4.7340   -1.5180 H   0  0  0  0  0  0
    2.0316    5.3566    0.0807 H   0  0  0  0  0  0
    3.1490    1.2487    0.3170 H   0  0  0  0  0  0
    1.5220   -0.7710    2.1336 C   0  0  0  0  0  0
    2.9166   -0.3813    2.5982 C   0  0  0  0  0  0
    3.8784   -0.5911    1.5087 N   0  0  0  0  0  0
    1.2423   -0.1812    1.2445 H   0  0  0  0  0  0
    0.7799   -0.5835    2.9278 H   0  0  0  0  0  0
    1.4918   -1.8414    1.8694 H   0  0  0  0  0  0
    2.9342    0.6965    2.8499 H   0  0  0  0  0  0
    3.1669   -0.9457    3.5170 H   0  0  0  0  0  0
    4.8237   -0.3333    1.8130 H   0  0  0  0  0  0
    3.9178   -1.5887    1.2723 H   0  0  0  0  0  0
  1  2  1  0  0  0
  2  3  3  0  0  0
  1  4  1  0  0  0
  1  5  1  0  0  0
  1  6  1  0  0  0
  3  7  1  0  0  0
  8  9  1  0  0  0
  9 10  1  0  0  0
  8 11  1  0  0  0
  8 12  1  0  0  0
  8 13  1  0  0  0
  9 14  1  0  0  0
  9 15  1  0  0  0
 10 16  1  0  0  0
 10 17  1  0  0  0
M  END
$$$$
