


 25 24  0  0  1  0            999 V2000
    3.0840    3.5780    1.0169 C   0  0  0  0  0  0
    4.1342    2.1363    1.2792 S   0  0  0  0  0  0
    4.5611    2.0284   -0.4712 C   0  0  0  0  0  0
    3.2595    2.0788   -1.2531 C   0  0  0  0  0  0
    2.2520    3.4493   -0.6064 S   0  0  0  0  0  0
    3.6715    4.5152    1.0606 H   0  0  0  0  0  0
    2.3283    3.6164    1.8249 H   0  0  0  0  0  0
    5.1078    1.0798   -0.6348 H   0  0  0  0  0  0
    5.2350    2.8588   -0.7570 H   0  0  0  0  0  0
    2.7068    1.1242   -1.1595 H   0  0  0  0  0  0
    3.4340    2.2624   -2.3308 H   0  0  0  0  0  0
   -0.3412    0.0393   -0.2654 C   0  0  0  0  0  0
    0.3077    0.0286    1.1183 C   0  0  0  0  0  0
   -0.1971    1.1607    2.0102 C   0  0  0  0  0  0
    0.4518    1.1499    3.3938 C   0  0  0  0  0  0
    0.0420   -0.7879   -0.8862 H   0  0  0  0  0  0
   -0.1251    0.9923   -0.7769 H   0  0  0  0  0  0
   -1.4348   -0.0691   -0.1709 H   0  0  0  0  0  0
    0.0986   -0.9378    1.6161 H   0  0  0  0  0  0
    1.4056    0.1215    1.0114 H   0  0  0  0  0  0
    0.0120    2.1270    1.5123 H   0  0  0  0  0  0
   -1.2950    1.0678    2.1171 H   0  0  0  0  0  0
    1.5454    1.2584    3.2993 H   0  0  0  0  0  0
    0.2357    0.1969    3.9053 H   0  0  0  0  0  0
    0.0686    1.9772    4.0146 H   0  0  0  0  0  0
  1  2  1  0  0  0
  2  3  1  0  0  0
  3  4  1  0  0  0
  4  5  1  0  0  0
  1  5  1  0  0  0
  1  6  1  0  0  0
  1  7  1  0  0  0
  3  8  1  0  0  0
  3  9  1  0  0  0
  4 10  1  0  0  0
  4 11  1  0  0  0
 12 13  1  0  0  0
 13 14  1  0  0  0
 14 15  1  0  0  0
 12 16  1  0  0  0
 12 17  1  0  0  0
 12 18  1  0  0  0
 13 19  1  0  0  0
 13 20  1  0  0  0
 14 21  1  0  0  0
 14 22  1  0  0  0
 15 23  1  0  0  0
 15 24  1  0  0  0
 15 25  1  0  0  0
M  END
$$$$
