


 25 23  0  0  1  0            999 V2000
    4.1980    2.0105    0.6302 C   0  0  0  0  0  0
    3.6146    0.7878    1.3123 C   0  0  0  0  0  0
    3.5810   -0.2987    0.7363 O   0  0  0  0  0  0
    3.1496    0.9470    2.5917 N   0  0  0  0  0  0
    3.0165    2.2213    3.2690 C   0  0  0  0  0  0
    2.5183   -0.1744    3.2586 C   0  0  0  0  0  0
    4.5526    1.6928   -0.3647 H   0  0  0  0  0  0
    5.0515    2.4265    1.1916 H   0  0  0  0  0  0
    3.4434    2.8040    0.4980 H   0  0  0  0  0  0
    1.9635    2.5492    3.2862 H   0  0  0  0  0  0
    3.3698    2.1177    4.3088 H   0  0  0  0  0  0
    3.6188    2.9981    2.7685 H   0  0  0  0  0  0
    2.7368   -1.1012    2.7019 H   0  0  0  0  0  0
    2.9116   -0.2788    4.2838 H   0  0  0  0  0  0
    1.4241   -0.0463    3.3128 H   0  0  0  0  0  0
   -1.1452    0.1207    0.2038 C   0  0  0  0  0  0
   -1.7460    1.5141    1.1833 S   0  0  0  0  0  0
   -0.7641    3.0879    0.3384 S   0  0  0  0  0  0
   -1.8378    3.5036   -1.0530 C   0  0  0  0  0  0
   -1.5994   -0.7949    0.6188 H   0  0  0  0  0  0
   -0.0479    0.0281    0.2655 H   0  0  0  0  0  0
   -1.4320    0.2056   -0.8578 H   0  0  0  0  0  0
   -1.9084    2.6798   -1.7831 H   0  0  0  0  0  0
   -2.8552    3.7614   -0.7140 H   0  0  0  0  0  0
   -1.4011    4.3829   -1.5559 H   0  0  0  0  0  0
  1  2  1  0  0  0
  2  3  2  0  0  0
  2  4  1  0  0  0
  4  5  1  0  0  0
  4  6  1  0  0  0
  1  7  1  0  0  0
  1  8  1  0  0  0
  1  9  1  0  0  0
  5 10  1  0  0  0
  5 11  1  0  0  0
  5 12  1  0  0  0
  6 13  1  0  0  0
  6 14  1  0  0  0
  6 15  1  0  0  0
 16 17  1  0  0  0
 17 18  1  0  0  0
 18 19  1  0  0  0
 16 20  1  0  0  0
 16 21  1  0  0  0
 16 22  1  0  0  0
 19 23  1  0  0  0
 19 24  1  0  0  0
 19 25  1  0  0  0
M  END
$$$$
