


 21 21  0  0  1  0            999 V2000
    1.5132    1.3764    4.3156 C   0  0  0  0  0  0
    0.1552    1.3361    3.6961 C   0  0  0  0  0  0
   -1.0425    0.9613    4.2712 C   0  0  0  0  0  0
   -1.9862    1.1023    3.2824 N   0  0  0  0  0  0
   -2.9870    0.9086    3.3680 H   0  0  0  0  0  0
   -1.3458    1.5475    2.1656 C   0  0  0  0  0  0
   -0.0492    1.6992    2.3827 N   0  0  0  0  0  0
    1.4657    1.0500    5.3681 H   0  0  0  0  0  0
    1.9181    2.4019    4.2832 H   0  0  0  0  0  0
    2.2019    0.7088    3.7710 H   0  0  0  0  0  0
   -1.2968    0.6155    5.2731 H   0  0  0  0  0  0
   -1.8678    1.7434    1.2290 H   0  0  0  0  0  0
    3.9730    1.8172    0.0933 C   0  0  0  0  0  0
    5.1005    2.4283   -0.2344 N   0  0  0  0  0  0
    4.9314    3.7329    0.1635 C   0  0  0  0  0  0
    3.6909    3.9117    0.7365 C   0  0  0  0  0  0
    3.0939    2.6769    0.6824 N   0  0  0  0  0  0
    2.1579    2.4434    1.0228 H   0  0  0  0  0  0
    3.7421    0.7648   -0.0711 H   0  0  0  0  0  0
    5.7123    4.4791    0.0171 H   0  0  0  0  0  0
    3.1932    4.7813    1.1657 H   0  0  0  0  0  0
  1  2  1  0  0  0
  2  3  2  0  0  0
  3  4  1  0  0  0
  4  5  1  0  0  0
  4  6  1  0  0  0
  6  7  2  0  0  0
  2  7  1  0  0  0
  1  8  1  0  0  0
  1  9  1  0  0  0
  1 10  1  0  0  0
  3 11  1  0  0  0
  6 12  1  0  0  0
 13 14  2  0  0  0
 14 15  1  0  0  0
 15 16  2  0  0  0
 16 17  1  0  0  0
 17 18  1  0  0  0
 13 17  1  0  0  0
 13 19  1  0  0  0
 15 20  1  0  0  0
 16 21  1  0  0  0
M  END
$$$$
