


 28 26  0  0  1  0            999 V2000
    1.3558    8.1102   -0.6568 C   0  0  0  0  0  0
    2.2675    8.5720   -1.7257 C   0  0  0  0  0  0
    2.8855    7.4526   -2.4841 C   0  0  0  0  0  0
    3.8067    6.8208   -1.9978 O   0  0  0  0  0  0
    2.3781    7.1289   -3.6132 O   0  0  0  0  0  0
    2.7106    6.1117   -4.5239 C   0  0  0  0  0  0
    1.8304    8.3356    0.3130 H   0  0  0  0  0  0
    1.1125    7.0348   -0.6879 H   0  0  0  0  0  0
    0.4176    8.6854   -0.7315 H   0  0  0  0  0  0
    1.6496    9.1347   -2.4517 H   0  0  0  0  0  0
    2.9794    9.2845   -1.2662 H   0  0  0  0  0  0
    2.4603    5.1626   -4.0208 H   0  0  0  0  0  0
    3.7824    6.0999   -4.7841 H   0  0  0  0  0  0
    2.1233    6.1820   -5.4548 H   0  0  0  0  0  0
   -5.6663    1.5930    0.8522 C   0  0  0  0  0  0
   -4.1698    1.7928    0.6584 C   0  0  0  0  0  0
   -3.8845    2.2486   -0.7513 C   0  0  0  0  0  0
   -2.9741    1.6951   -1.3333 O   0  0  0  0  0  0
   -4.7720    3.1874   -1.1827 O   0  0  0  0  0  0
   -4.6314    3.8007   -2.4615 C   0  0  0  0  0  0
   -6.3236    2.2902    0.3058 H   0  0  0  0  0  0
   -6.0207    1.5188    1.8941 H   0  0  0  0  0  0
   -5.7418    0.5976    0.3832 H   0  0  0  0  0  0
   -3.7808    2.5024    1.4138 H   0  0  0  0  0  0
   -3.6820    0.8146    0.8328 H   0  0  0  0  0  0
   -5.0203    3.2523   -3.3359 H   0  0  0  0  0  0
   -3.5596    4.0051   -2.6226 H   0  0  0  0  0  0
   -5.1653    4.7628   -2.3837 H   0  0  0  0  0  0
  1  2  1  0  0  0
  2  3  1  0  0  0
  3  4  2  0  0  0
  3  5  1  0  0  0
  5  6  1  0  0  0
  1  7  1  0  0  0
  1  8  1  0  0  0
  1  9  1  0  0  0
  2 10  1  0  0  0
  2 11  1  0  0  0
  6 12  1  0  0  0
  6 13  1  0  0  0
  6 14  1  0  0  0
 15 16  1  0  0  0
 16 17  1  0  0  0
 17 18  2  0  0  0
 17 19  1  0  0  0
 19 20  1  0  0  0
 15 21  1  0  0  0
 15 22  1  0  0  0
 15 23  1  0  0  0
 16 24  1  0  0  0
 16 25  1  0  0  0
 20 26  1  0  0  0
 20 27  1  0  0  0
 20 28  1  0  0  0
M  END
$$$$
