


 28 26  0  0  1  0            999 V2000
   -1.0807   12.9982    6.5773 C   0  0  0  0  0  0
   -1.1081   11.4338    6.6047 C   0  0  0  0  0  0
   -0.6850   10.7920    7.9505 C   0  0  0  0  0  0
   -0.4163   11.4071    8.9714 O   0  0  0  0  0  0
   -0.7310    9.4705    7.9604 O   0  0  0  0  0  0
   -0.7607    8.7491    9.1962 C   0  0  0  0  0  0
   -1.2461   13.1836    5.5027 H   0  0  0  0  0  0
   -0.0902   13.3963    6.8546 H   0  0  0  0  0  0
   -1.8511   13.5408    7.1506 H   0  0  0  0  0  0
   -2.1808   11.2045    6.4559 H   0  0  0  0  0  0
   -0.5547   11.0359    5.7323 H   0  0  0  0  0  0
    0.1565    8.9814    9.7631 H   0  0  0  0  0  0
   -0.7998    7.6608    9.0211 H   0  0  0  0  0  0
   -1.6335    9.0391    9.8049 H   0  0  0  0  0  0
    0.0880    2.3442   15.6963 C   0  0  0  0  0  0
    0.2462    3.8535   15.6152 C   0  0  0  0  0  0
   -0.2505    4.4894   14.2851 C   0  0  0  0  0  0
   -0.5826    3.8045   13.2952 O   0  0  0  0  0  0
   -0.1918    5.8487   14.3055 O   0  0  0  0  0  0
   -0.7086    6.6530   13.1435 C   0  0  0  0  0  0
    0.6463    1.8793   14.8664 H   0  0  0  0  0  0
   -0.9890    2.1638   15.5405 H   0  0  0  0  0  0
    0.3928    1.8607   16.6397 H   0  0  0  0  0  0
   -0.2362    4.2814   16.5149 H   0  0  0  0  0  0
    1.3380    4.0082   15.7129 H   0  0  0  0  0  0
   -1.7121    7.0175   13.4206 H   0  0  0  0  0  0
   -0.8030    6.0011   12.2588 H   0  0  0  0  0  0
   -0.0808    7.5196   12.8766 H   0  0  0  0  0  0
  1  2  1  0  0  0
  2  3  1  0  0  0
  3  4  2  0  0  0
  3  5  1  0  0  0
  5  6  1  0  0  0
  1  7  1  0  0  0
  1  8  1  0  0  0
  1  9  1  0  0  0
  2 10  1  0  0  0
  2 11  1  0  0  0
  6 12  1  0  0  0
  6 13  1  0  0  0
  6 14  1  0  0  0
 15 16  1  0  0  0
 16 17  1  0  0  0
 17 18  2  0  0  0
 17 19  1  0  0  0
 19 20  1  0  0  0
 15 21  1  0  0  0
 15 22  1  0  0  0
 15 23  1  0  0  0
 16 24  1  0  0  0
 16 25  1  0  0  0
 20 26  1  0  0  0
 20 27  1  0  0  0
 20 28  1  0  0  0
M  END
$$$$
