


 28 26  0  0  1  0            999 V2000
    0.0000    0.0000    0.0000 C   0  0  0  0  0  0
    0.2450   -1.3873    0.5716 C   0  0  0  0  0  0
   -0.7658   -2.4723    0.1912 C   0  0  0  0  0  0
   -1.9663   -2.1816    0.0035 O   0  0  0  0  0  0
   -0.2141   -3.7153   -0.0636 O   0  0  0  0  0  0
   -0.9768   -4.6227   -0.7702 C   0  0  0  0  0  0
    0.7064    0.7630    0.3682 H   0  0  0  0  0  0
   -1.0203    0.4172    0.0391 H   0  0  0  0  0  0
    0.2462   -0.2297   -1.0504 H   0  0  0  0  0  0
    1.2933   -1.5398    0.2503 H   0  0  0  0  0  0
    0.2372   -1.3257    1.6768 H   0  0  0  0  0  0
   -1.1195   -4.3719   -1.8348 H   0  0  0  0  0  0
   -1.9676   -4.7586   -0.3049 H   0  0  0  0  0  0
   -0.4235   -5.5746   -0.7042 H   0  0  0  0  0  0
    2.5858    1.3170    3.2810 C   0  0  0  0  0  0
    2.0179    2.4207    4.1151 C   0  0  0  0  0  0
    0.6257    2.9172    3.7613 C   0  0  0  0  0  0
   -0.3859    2.3314    4.2406 O   0  0  0  0  0  0
    0.6058    3.8674    2.8529 O   0  0  0  0  0  0
   -0.6000    4.2609    2.1516 C   0  0  0  0  0  0
    3.6751    1.4678    3.1961 H   0  0  0  0  0  0
    2.1425    1.3789    2.2729 H   0  0  0  0  0  0
    2.4008    0.3076    3.6854 H   0  0  0  0  0  0
    2.0545    2.1853    5.1962 H   0  0  0  0  0  0
    2.6603    3.3053    3.9414 H   0  0  0  0  0  0
   -0.3125    4.5442    1.1250 H   0  0  0  0  0  0
   -1.1039    5.1200    2.6256 H   0  0  0  0  0  0
   -1.3126    3.4207    2.0982 H   0  0  0  0  0  0
  1  2  1  0  0  0
  2  3  1  0  0  0
  3  4  2  0  0  0
  3  5  1  0  0  0
  5  6  1  0  0  0
  1  7  1  0  0  0
  1  8  1  0  0  0
  1  9  1  0  0  0
  2 10  1  0  0  0
  2 11  1  0  0  0
  6 12  1  0  0  0
  6 13  1  0  0  0
  6 14  1  0  0  0
 15 16  1  0  0  0
 16 17  1  0  0  0
 17 18  2  0  0  0
 17 19  1  0  0  0
 19 20  1  0  0  0
 15 21  1  0  0  0
 15 22  1  0  0  0
 15 23  1  0  0  0
 16 24  1  0  0  0
 16 25  1  0  0  0
 20 26  1  0  0  0
 20 27  1  0  0  0
 20 28  1  0  0  0
M  END
$$$$
