


 34 32  0  0  1  0            999 V2000
   -5.2845   -5.1269    0.2791 C   0  0  0  0  0  0
   -4.6725   -4.7062    1.6747 C   0  0  0  0  0  0
   -4.3652   -5.8310    2.7202 C   0  0  0  0  0  0
   -3.3384   -5.4390    3.7944 C   0  0  0  0  0  0
   -5.7003   -6.2816    3.3386 C   0  0  0  0  0  0
   -5.7990   -4.2386   -0.1241 H   0  0  0  0  0  0
   -6.0144   -5.9500    0.3596 H   0  0  0  0  0  0
   -4.4930   -5.4265   -0.4283 H   0  0  0  0  0  0
   -3.7361   -4.1157    1.6689 H   0  0  0  0  0  0
   -5.4712   -4.0665    2.0970 H   0  0  0  0  0  0
   -4.0110   -6.7386    2.1905 H   0  0  0  0  0  0
   -3.6582   -4.6697    4.5172 H   0  0  0  0  0  0
   -2.4601   -5.0613    3.2443 H   0  0  0  0  0  0
   -3.0422   -6.3437    4.3515 H   0  0  0  0  0  0
   -6.1823   -6.9247    2.5832 H   0  0  0  0  0  0
   -6.3513   -5.4112    3.5266 H   0  0  0  0  0  0
   -5.5996   -6.8545    4.2758 H   0  0  0  0  0  0
   -6.4825    0.5160    5.5760 C   0  0  0  0  0  0
   -6.0068    0.1025    4.1637 C   0  0  0  0  0  0
   -4.6878   -0.7503    4.2722 C   0  0  0  0  0  0
   -4.3276   -1.3111    2.9168 C   0  0  0  0  0  0
   -3.4166   -0.0603    4.9324 C   0  0  0  0  0  0
   -6.2014   -0.1813    6.3831 H   0  0  0  0  0  0
   -7.5593    0.7387    5.6627 H   0  0  0  0  0  0
   -5.9175    1.4539    5.7088 H   0  0  0  0  0  0
   -6.6940   -0.6577    3.7450 H   0  0  0  0  0  0
   -5.9972    0.9656    3.4706 H   0  0  0  0  0  0
   -4.8492   -1.6519    4.8975 H   0  0  0  0  0  0
   -3.5230   -2.0649    2.8845 H   0  0  0  0  0  0
   -4.0438   -0.4656    2.2678 H   0  0  0  0  0  0
   -5.2511   -1.7650    2.5196 H   0  0  0  0  0  0
   -3.3519    0.9108    4.4134 H   0  0  0  0  0  0
   -2.4685   -0.6035    4.7820 H   0  0  0  0  0  0
   -3.5482    0.1256    6.0116 H   0  0  0  0  0  0
  1  2  1  0  0  0
  2  3  1  0  0  0
  3  4  1  0  0  0
  3  5  1  0  0  0
  1  6  1  0  0  0
  1  7  1  0  0  0
  1  8  1  0  0  0
  2  9  1  0  0  0
  2 10  1  0  0  0
  3 11  1  0  0  0
  4 12  1  0  0  0
  4 13  1  0  0  0
  4 14  1  0  0  0
  5 15  1  0  0  0
  5 16  1  0  0  0
  5 17  1  0  0  0
 18 19  1  0  0  0
 19 20  1  0  0  0
 20 21  1  0  0  0
 20 22  1  0  0  0
 18 23  1  0  0  0
 18 24  1  0  0  0
 18 25  1  0  0  0
 19 26  1  0  0  0
 19 27  1  0  0  0
 20 28  1  0  0  0
 21 29  1  0  0  0
 21 30  1  0  0  0
 21 31  1  0  0  0
 22 32  1  0  0  0
 22 33  1  0  0  0
 22 34  1  0  0  0
M  END
$$$$
