


 17 15  0  0  1  0            999 V2000
    4.1235    4.0379    2.2750 C   0  0  0  0  0  0
    2.6613    3.6983    2.4292 C   0  0  0  0  0  0
    2.0863    3.9591    4.2552 Br  0  0  0  0  0  0
    1.5819    4.7541    1.2237 Br  0  0  0  0  0  0
    4.7309    3.4083    2.9468 H   0  0  0  0  0  0
    4.3094    5.0968    2.5218 H   0  0  0  0  0  0
    4.4463    3.8569    1.2359 H   0  0  0  0  0  0
    2.4329    2.6398    2.1896 H   0  0  0  0  0  0
   -0.7397    0.3639    2.2906 C   0  0  0  0  0  0
    0.6200   -0.5506    1.5444 S   0  0  0  0  0  0
    0.3233   -0.0959   -0.1723 C   0  0  0  0  0  0
   -0.7092    0.1932    3.3798 H   0  0  0  0  0  0
   -1.7153    0.0199    1.9078 H   0  0  0  0  0  0
   -0.6495    1.4468    2.1014 H   0  0  0  0  0  0
   -0.6707   -0.4319   -0.5126 H   0  0  0  0  0  0
    0.3952    0.9949   -0.3190 H   0  0  0  0  0  0
    1.0920   -0.5859   -0.7933 H   0  0  0  0  0  0
  1  2  1  0  0  0
  2  3  1  0  0  0
  2  4  1  0  0  0
  1  5  1  0  0  0
  1  6  1  0  0  0
  1  7  1  0  0  0
  2  8  1  0  0  0
  9 10  1  0  0  0
 10 11  1  0  0  0
  9 12  1  0  0  0
  9 13  1  0  0  0
  9 14  1  0  0  0
 11 15  1  0  0  0
 11 16  1  0  0  0
 11 17  1  0  0  0
M  END
$$$$
