


 14 12  0  0  1  0            999 V2000
    2.4345   -0.5267    0.7123 C   0  0  0  0  0  0
    2.6137   -0.2325   -0.7593 C   0  0  0  0  0  0
    3.1099   -1.0439   -1.5236 O   0  0  0  0  0  0
    2.1429    1.1244   -1.2297 C   0  0  0  0  0  0
    2.8023   -1.5390    0.9500 H   0  0  0  0  0  0
    1.3681   -0.4661    0.9877 H   0  0  0  0  0  0
    2.9965    0.2033    1.3188 H   0  0  0  0  0  0
    1.0629    1.2413   -1.0385 H   0  0  0  0  0  0
    2.6834    1.9236   -0.6952 H   0  0  0  0  0  0
    2.3232    1.2405   -2.3117 H   0  0  0  0  0  0
    1.9062    3.0497    2.1362 O   0  0  0  0  0  0
    0.6549    2.9702    2.2577 C   0  0  0  0  0  0
   -0.1636    2.1830    1.7125 O   0  0  0  0  0  0
    0.2006    3.7129    2.9574 H   0  0  0  0  0  0
  1  2  1  0  0  0
  2  3  2  0  0  0
  2  4  1  0  0  0
  1  5  1  0  0  0
  1  6  1  0  0  0
  1  7  1  0  0  0
  4  8  1  0  0  0
  4  9  1  0  0  0
  4 10  1  0  0  0
 11 12  1  0  0  0
 12 13  2  0  0  0
 12 14  1  0  0  0
M  CHG  1  11  -1
M  END
$$$$
