


 21 21  0  0  1  0            999 V2000
    1.8869    2.5835    0.1140 C   0  0  0  0  0  0
    3.0790    2.3476    0.7999 C   0  0  0  0  0  0
    3.6736    1.0862    0.7520 C   0  0  0  0  0  0
    3.0761    0.0606    0.0183 C   0  0  0  0  0  0
    1.8840    0.2965   -0.6676 C   0  0  0  0  0  0
    1.2894    1.5580   -0.6197 C   0  0  0  0  0  0
    1.4191    3.5761    0.1517 H   0  0  0  0  0  0
    3.5492    3.1546    1.3772 H   0  0  0  0  0  0
    4.6116    0.9005    1.2917 H   0  0  0  0  0  0
    3.5440   -0.9320   -0.0194 H   0  0  0  0  0  0
    1.4138   -0.5104   -1.2449 H   0  0  0  0  0  0
    0.3514    1.7436   -1.1594 H   0  0  0  0  0  0
   -0.6986   -0.2808    2.5683 C   0  0  0  0  0  0
   -1.3917   -0.6487    3.6342 N   0  0  0  0  0  0
   -0.6045   -0.3114    4.7092 C   0  0  0  0  0  0
    0.5745    0.2653    4.2892 C   0  0  0  0  0  0
    0.4956    0.2760    2.9188 N   0  0  0  0  0  0
    1.2050    0.6367    2.2760 H   0  0  0  0  0  0
   -1.0103   -0.3928    1.5299 H   0  0  0  0  0  0
   -0.9266   -0.5010    5.7332 H   0  0  0  0  0  0
    1.4379    0.6579    4.8263 H   0  0  0  0  0  0
  1  2  1  0  0  0
  2  3  2  0  0  0
  3  4  1  0  0  0
  4  5  2  0  0  0
  5  6  1  0  0  0
  1  6  2  0  0  0
  1  7  1  0  0  0
  2  8  1  0  0  0
  3  9  1  0  0  0
  4 10  1  0  0  0
  5 11  1  0  0  0
  6 12  1  0  0  0
 13 14  2  0  0  0
 14 15  1  0  0  0
 15 16  2  0  0  0
 16 17  1  0  0  0
 17 18  1  0  0  0
 13 17  1  0  0  0
 13 19  1  0  0  0
 15 20  1  0  0  0
 16 21  1  0  0  0
M  END
$$$$
