


 24 22  0  0  1  0            999 V2000
    0.0000    0.0000    0.0000 C   0  0  0  0  0  0
    0.4709   -1.3219   -0.2072 O   0  0  0  0  0  0
    1.8023   -1.5802    0.1251 C   0  0  0  0  0  0
    2.0689   -3.0498   -0.0046 C   0  0  0  0  0  0
    0.3851    0.7948   -0.6607 H   0  0  0  0  0  0
    0.3450    0.1996    1.0285 H   0  0  0  0  0  0
   -1.1024    0.0342   -0.0141 H   0  0  0  0  0  0
    2.3736   -1.0765   -0.6782 H   0  0  0  0  0  0
    2.1620   -1.1829    1.0938 H   0  0  0  0  0  0
    3.1326   -3.2905    0.1601 H   0  0  0  0  0  0
    1.7978   -3.3397   -1.0337 H   0  0  0  0  0  0
    1.4610   -3.6425    0.6995 H   0  0  0  0  0  0
   -1.9852   -3.4117   -0.3048 C   0  0  0  0  0  0
   -1.9241   -4.0577   -1.5409 O   0  0  0  0  0  0
   -1.2831   -3.2932   -2.4790 C   0  0  0  0  0  0
   -1.2677   -4.0006   -3.8994 C   0  0  0  0  0  0
   -2.5218   -4.1391    0.3274 H   0  0  0  0  0  0
   -2.5169   -2.4464   -0.2592 H   0  0  0  0  0  0
   -0.9695   -3.2734    0.1025 H   0  0  0  0  0  0
   -1.8860   -2.3672   -2.5461 H   0  0  0  0  0  0
   -0.2632   -3.0082   -2.1564 H   0  0  0  0  0  0
   -0.9801   -3.2102   -4.6129 H   0  0  0  0  0  0
   -2.2433   -4.4138   -4.2063 H   0  0  0  0  0  0
   -0.5150   -4.8057   -3.9440 H   0  0  0  0  0  0
  1  2  1  0  0  0
  2  3  1  0  0  0
  3  4  1  0  0  0
  1  5  1  0  0  0
  1  6  1  0  0  0
  1  7  1  0  0  0
  3  8  1  0  0  0
  3  9  1  0  0  0
  4 10  1  0  0  0
  4 11  1  0  0  0
  4 12  1  0  0  0
 13 14  1  0  0  0
 14 15  1  0  0  0
 15 16  1  0  0  0
 13 17  1  0  0  0
 13 18  1  0  0  0
 13 19  1  0  0  0
 15 20  1  0  0  0
 15 21  1  0  0  0
 16 22  1  0  0  0
 16 23  1  0  0  0
 16 24  1  0  0  0
M  END
$$$$
