


 24 22  0  0  1  0            999 V2000
    2.9330    2.0024    1.8593 C   0  0  0  0  0  0
    2.3673    3.2262    2.0942 O   0  0  0  0  0  0
    2.0606    3.3935    3.4988 C   0  0  0  0  0  0
    3.3727    3.7279    4.2283 C   0  0  0  0  0  0
    2.6024    1.1740    2.5082 H   0  0  0  0  0  0
    4.0195    2.1398    1.9903 H   0  0  0  0  0  0
    2.7374    1.7265    0.8094 H   0  0  0  0  0  0
    1.3493    4.2332    3.6185 H   0  0  0  0  0  0
    1.5921    2.4906    3.9355 H   0  0  0  0  0  0
    3.6230    4.7928    4.0872 H   0  0  0  0  0  0
    4.1966    3.1163    3.8238 H   0  0  0  0  0  0
    3.2837    3.5276    5.3093 H   0  0  0  0  0  0
    4.0665   -1.7868   -7.0743 C   0  0  0  0  0  0
    3.5725   -1.5767   -5.7917 O   0  0  0  0  0  0
    2.3396   -2.1595   -5.5642 C   0  0  0  0  0  0
    1.7840   -1.7033   -4.2107 C   0  0  0  0  0  0
    5.0381   -1.2656   -7.1090 H   0  0  0  0  0  0
    3.4349   -1.4085   -7.8956 H   0  0  0  0  0  0
    4.2397   -2.8647   -7.2314 H   0  0  0  0  0  0
    1.5821   -1.9653   -6.3478 H   0  0  0  0  0  0
    2.5778   -3.2403   -5.5868 H   0  0  0  0  0  0
    0.7796   -2.1183   -4.0222 H   0  0  0  0  0  0
    1.7075   -0.6039   -4.2567 H   0  0  0  0  0  0
    2.4411   -1.9753   -3.3676 H   0  0  0  0  0  0
  1  2  1  0  0  0
  2  3  1  0  0  0
  3  4  1  0  0  0
  1  5  1  0  0  0
  1  6  1  0  0  0
  1  7  1  0  0  0
  3  8  1  0  0  0
  3  9  1  0  0  0
  4 10  1  0  0  0
  4 11  1  0  0  0
  4 12  1  0  0  0
 13 14  1  0  0  0
 14 15  1  0  0  0
 15 16  1  0  0  0
 13 17  1  0  0  0
 13 18  1  0  0  0
 13 19  1  0  0  0
 15 20  1  0  0  0
 15 21  1  0  0  0
 16 22  1  0  0  0
 16 23  1  0  0  0
 16 24  1  0  0  0
M  END
$$$$
