


 24 22  0  0  1  0            999 V2000
    0.0000    0.0000    0.0000 C   0  0  0  0  0  0
    0.2316   -1.0266    0.8874 O   0  0  0  0  0  0
    1.2137   -0.6668    1.8803 C   0  0  0  0  0  0
    2.6397   -0.7264    1.3743 C   0  0  0  0  0  0
   -0.6709   -0.4217   -0.7673 H   0  0  0  0  0  0
    0.8912    0.4140   -0.5010 H   0  0  0  0  0  0
   -0.5268    0.8206    0.5154 H   0  0  0  0  0  0
    0.9159    0.3142    2.2979 H   0  0  0  0  0  0
    1.0753   -1.4263    2.6738 H   0  0  0  0  0  0
    2.9249    0.1768    0.8089 H   0  0  0  0  0  0
    2.8156   -1.6100    0.7380 H   0  0  0  0  0  0
    3.2843   -0.8012    2.2662 H   0  0  0  0  0  0
    3.6862    4.6754   -3.9933 C   0  0  0  0  0  0
    2.7040    3.8340   -3.5820 O   0  0  0  0  0  0
    2.1446    4.0856   -2.3449 C   0  0  0  0  0  0
    1.0081    3.0967   -2.2001 C   0  0  0  0  0  0
    3.3524    5.7265   -3.9782 H   0  0  0  0  0  0
    4.0126    4.4245   -5.0166 H   0  0  0  0  0  0
    4.5484    4.5703   -3.3134 H   0  0  0  0  0  0
    2.9333    3.9878   -1.5742 H   0  0  0  0  0  0
    1.7773    5.1296   -2.3200 H   0  0  0  0  0  0
    0.6751    2.9145   -3.2357 H   0  0  0  0  0  0
    0.1561    3.4905   -1.6207 H   0  0  0  0  0  0
    1.3209    2.1363   -1.7570 H   0  0  0  0  0  0
  1  2  1  0  0  0
  2  3  1  0  0  0
  3  4  1  0  0  0
  1  5  1  0  0  0
  1  6  1  0  0  0
  1  7  1  0  0  0
  3  8  1  0  0  0
  3  9  1  0  0  0
  4 10  1  0  0  0
  4 11  1  0  0  0
  4 12  1  0  0  0
 13 14  1  0  0  0
 14 15  1  0  0  0
 15 16  1  0  0  0
 13 17  1  0  0  0
 13 18  1  0  0  0
 13 19  1  0  0  0
 15 20  1  0  0  0
 15 21  1  0  0  0
 16 22  1  0  0  0
 16 23  1  0  0  0
 16 24  1  0  0  0
M  END
$$$$
