


 24 22  0  0  1  0            999 V2000
   -1.5443   -2.0686    3.0886 C   0  0  0  0  0  0
   -0.9696   -3.1388    3.7825 O   0  0  0  0  0  0
   -1.0831   -3.1162    5.1570 C   0  0  0  0  0  0
   -0.8388   -4.5462    5.6033 C   0  0  0  0  0  0
   -1.2357   -1.1264    3.5719 H   0  0  0  0  0  0
   -2.6388   -2.1694    3.1811 H   0  0  0  0  0  0
   -1.2851   -2.0161    2.0178 H   0  0  0  0  0  0
   -0.3264   -2.4662    5.6370 H   0  0  0  0  0  0
   -2.0797   -2.7931    5.5145 H   0  0  0  0  0  0
    0.2388   -4.7622    5.5100 H   0  0  0  0  0  0
   -1.3975   -5.2704    4.9868 H   0  0  0  0  0  0
   -1.1344   -4.6798    6.6576 H   0  0  0  0  0  0
   -3.9550    3.9167    2.7919 C   0  0  0  0  0  0
   -4.0478    2.7379    3.6172 O   0  0  0  0  0  0
   -4.3225    1.5751    2.7909 C   0  0  0  0  0  0
   -4.8372    0.4961    3.7605 C   0  0  0  0  0  0
   -3.4208    3.6223    1.8729 H   0  0  0  0  0  0
   -3.3469    4.6647    3.3279 H   0  0  0  0  0  0
   -4.9142    4.3812    2.5078 H   0  0  0  0  0  0
   -5.0883    1.8135    2.0279 H   0  0  0  0  0  0
   -3.3989    1.2765    2.2588 H   0  0  0  0  0  0
   -4.1072    0.2162    4.5386 H   0  0  0  0  0  0
   -5.1190   -0.4111    3.1999 H   0  0  0  0  0  0
   -5.7381    0.8998    4.2523 H   0  0  0  0  0  0
  1  2  1  0  0  0
  2  3  1  0  0  0
  3  4  1  0  0  0
  1  5  1  0  0  0
  1  6  1  0  0  0
  1  7  1  0  0  0
  3  8  1  0  0  0
  3  9  1  0  0  0
  4 10  1  0  0  0
  4 11  1  0  0  0
  4 12  1  0  0  0
 13 14  1  0  0  0
 14 15  1  0  0  0
 15 16  1  0  0  0
 13 17  1  0  0  0
 13 18  1  0  0  0
 13 19  1  0  0  0
 15 20  1  0  0  0
 15 21  1  0  0  0
 16 22  1  0  0  0
 16 23  1  0  0  0
 16 24  1  0  0  0
M  END
$$$$
