


 24 22  0  0  1  0            999 V2000
    3.2036   -2.7574   -4.8080 C   0  0  0  0  0  0
    3.6710   -1.8082   -3.9441 O   0  0  0  0  0  0
    2.6020   -1.3426   -3.1480 C   0  0  0  0  0  0
    3.1932   -0.1604   -2.2910 C   0  0  0  0  0  0
    2.7399   -3.6478   -4.3509 H   0  0  0  0  0  0
    4.0882   -3.0777   -5.3836 H   0  0  0  0  0  0
    2.4785   -2.3005   -5.5023 H   0  0  0  0  0  0
    1.6582   -1.0159   -3.6255 H   0  0  0  0  0  0
    2.3692   -2.2102   -2.5011 H   0  0  0  0  0  0
    3.3262    0.7435   -2.9090 H   0  0  0  0  0  0
    4.1777   -0.4669   -1.8993 H   0  0  0  0  0  0
    2.5379    0.0890   -1.4395 H   0  0  0  0  0  0
   -2.4644   -3.7621    0.1986 C   0  0  0  0  0  0
   -2.0269   -3.5917   -1.1415 O   0  0  0  0  0  0
   -0.6347   -3.8391   -1.3961 C   0  0  0  0  0  0
   -0.3165   -3.7513   -2.8234 C   0  0  0  0  0  0
   -1.8938   -3.1033    0.8746 H   0  0  0  0  0  0
   -2.2757   -4.8100    0.4866 H   0  0  0  0  0  0
   -3.5394   -3.5504    0.3256 H   0  0  0  0  0  0
    0.1011   -3.2233   -0.8441 H   0  0  0  0  0  0
   -0.4221   -4.9016   -1.1692 H   0  0  0  0  0  0
   -0.3095   -2.7352   -3.2524 H   0  0  0  0  0  0
   -1.1083   -4.3373   -3.3197 H   0  0  0  0  0  0
    0.6564   -4.2277   -3.0311 H   0  0  0  0  0  0
  1  2  1  0  0  0
  2  3  1  0  0  0
  3  4  1  0  0  0
  1  5  1  0  0  0
  1  6  1  0  0  0
  1  7  1  0  0  0
  3  8  1  0  0  0
  3  9  1  0  0  0
  4 10  1  0  0  0
  4 11  1  0  0  0
  4 12  1  0  0  0
 13 14  1  0  0  0
 14 15  1  0  0  0
 15 16  1  0  0  0
 13 17  1  0  0  0
 13 18  1  0  0  0
 13 19  1  0  0  0
 15 20  1  0  0  0
 15 21  1  0  0  0
 16 22  1  0  0  0
 16 23  1  0  0  0
 16 24  1  0  0  0
M  END
$$$$
