


 24 22  0  0  1  0            999 V2000
   -5.3624    6.4238   -1.8704 C   0  0  0  0  0  0
   -4.0851    5.8634   -2.2342 O   0  0  0  0  0  0
   -3.8182    4.5582   -1.7708 C   0  0  0  0  0  0
   -2.3901    4.2126   -2.2667 C   0  0  0  0  0  0
   -5.3838    7.4912   -2.1475 H   0  0  0  0  0  0
   -5.7297    6.3216   -0.8353 H   0  0  0  0  0  0
   -6.0426    5.8725   -2.5411 H   0  0  0  0  0  0
   -3.8018    4.5912   -0.6644 H   0  0  0  0  0  0
   -4.6267    3.8659   -2.0749 H   0  0  0  0  0  0
   -2.3872    4.0238   -3.3534 H   0  0  0  0  0  0
   -2.0337    3.3050   -1.7510 H   0  0  0  0  0  0
   -1.6904    5.0375   -2.0511 H   0  0  0  0  0  0
    4.9188    5.8178   -2.4043 C   0  0  0  0  0  0
    3.9884    4.9502   -1.8834 O   0  0  0  0  0  0
    2.8503    4.7193   -2.7627 C   0  0  0  0  0  0
    1.8243    4.0736   -1.8365 C   0  0  0  0  0  0
    5.7041    5.9827   -1.6475 H   0  0  0  0  0  0
    4.4928    6.7948   -2.6879 H   0  0  0  0  0  0
    5.3804    5.3628   -3.2968 H   0  0  0  0  0  0
    2.4958    5.6884   -3.1634 H   0  0  0  0  0  0
    3.1791    4.1007   -3.6198 H   0  0  0  0  0  0
    0.8712    4.0386   -2.3905 H   0  0  0  0  0  0
    1.6834    4.6898   -0.9325 H   0  0  0  0  0  0
    2.0887    3.0488   -1.5260 H   0  0  0  0  0  0
  1  2  1  0  0  0
  2  3  1  0  0  0
  3  4  1  0  0  0
  1  5  1  0  0  0
  1  6  1  0  0  0
  1  7  1  0  0  0
  3  8  1  0  0  0
  3  9  1  0  0  0
  4 10  1  0  0  0
  4 11  1  0  0  0
  4 12  1  0  0  0
 13 14  1  0  0  0
 14 15  1  0  0  0
 15 16  1  0  0  0
 13 17  1  0  0  0
 13 18  1  0  0  0
 13 19  1  0  0  0
 15 20  1  0  0  0
 15 21  1  0  0  0
 16 22  1  0  0  0
 16 23  1  0  0  0
 16 24  1  0  0  0
M  END
$$$$
