


 24 22  0  0  1  0            999 V2000
    1.2653   16.1347    7.8961 C   0  0  0  0  0  0
    0.8440   15.7893    6.5617 O   0  0  0  0  0  0
    1.3432   14.5815    6.0920 C   0  0  0  0  0  0
    0.9382   14.5568    4.5852 C   0  0  0  0  0  0
    0.6085   15.5039    8.5184 H   0  0  0  0  0  0
    1.2089   17.1726    8.2651 H   0  0  0  0  0  0
    2.3032   15.7781    8.0063 H   0  0  0  0  0  0
    2.4414   14.5630    6.2303 H   0  0  0  0  0  0
    0.9285   13.6729    6.5693 H   0  0  0  0  0  0
   -0.1439   14.6538    4.3944 H   0  0  0  0  0  0
    1.2626   13.5514    4.2679 H   0  0  0  0  0  0
    1.4712   15.3067    3.9769 H   0  0  0  0  0  0
   -4.0513   17.2957    1.8901 C   0  0  0  0  0  0
   -2.8563   17.5558    2.4869 O   0  0  0  0  0  0
   -2.6905   16.8944    3.7610 C   0  0  0  0  0  0
   -1.4811   17.5395    4.4831 C   0  0  0  0  0  0
   -4.1206   16.2649    1.5038 H   0  0  0  0  0  0
   -4.1386   17.9958    1.0422 H   0  0  0  0  0  0
   -4.8947   17.4707    2.5790 H   0  0  0  0  0  0
   -3.5854   16.8966    4.4127 H   0  0  0  0  0  0
   -2.3908   15.8403    3.6044 H   0  0  0  0  0  0
   -1.1878   16.9645    5.3775 H   0  0  0  0  0  0
   -1.7117   18.5736    4.7896 H   0  0  0  0  0  0
   -0.6283   17.5617    3.7839 H   0  0  0  0  0  0
  1  2  1  0  0  0
  2  3  1  0  0  0
  3  4  1  0  0  0
  1  5  1  0  0  0
  1  6  1  0  0  0
  1  7  1  0  0  0
  3  8  1  0  0  0
  3  9  1  0  0  0
  4 10  1  0  0  0
  4 11  1  0  0  0
  4 12  1  0  0  0
 13 14  1  0  0  0
 14 15  1  0  0  0
 15 16  1  0  0  0
 13 17  1  0  0  0
 13 18  1  0  0  0
 13 19  1  0  0  0
 15 20  1  0  0  0
 15 21  1  0  0  0
 16 22  1  0  0  0
 16 23  1  0  0  0
 16 24  1  0  0  0
M  END
$$$$
