


 24 24  0  0  1  0            999 V2000
   -0.2297    2.5708   -0.1214 F   0  0  0  0  0  0
    1.1109    2.7184   -0.2167 C   0  0  0  0  0  0
    1.8354    1.7871   -0.9469 C   0  0  0  0  0  0
    3.2181    1.9465   -1.0404 C   0  0  0  0  0  0
    3.8491    3.0201   -0.4112 C   0  0  0  0  0  0
    3.0948    3.9410    0.3164 C   0  0  0  0  0  0
    1.7113    3.7957    0.4194 C   0  0  0  0  0  0
    1.3127    0.9521   -1.4316 H   0  0  0  0  0  0
    3.8077    1.2193   -1.6140 H   0  0  0  0  0  0
    4.9378    3.1400   -0.4886 H   0  0  0  0  0  0
    3.5872    4.7874    0.8131 H   0  0  0  0  0  0
    1.0930    4.5050    0.9852 H   0  0  0  0  0  0
    1.3790    0.9604    2.2489 C   0  0  0  0  0  0
    2.7729    1.0185    2.2219 C   0  0  0  0  0  0
    3.4985    0.0471    1.5312 C   0  0  0  0  0  0
    2.8301   -0.9823    0.8675 C   0  0  0  0  0  0
    1.4362   -1.0404    0.8945 C   0  0  0  0  0  0
    0.7106   -0.0690    1.5852 C   0  0  0  0  0  0
    0.8081    1.7248    2.7924 H   0  0  0  0  0  0
    3.2989    1.8286    2.7442 H   0  0  0  0  0  0
    4.5953    0.0928    1.5100 H   0  0  0  0  0  0
    3.4010   -1.7467    0.3240 H   0  0  0  0  0  0
    0.9102   -1.8505    0.3722 H   0  0  0  0  0  0
   -0.3862   -0.1147    1.6064 H   0  0  0  0  0  0
  1  2  1  0  0  0
  2  3  1  0  0  0
  3  4  2  0  0  0
  4  5  1  0  0  0
  5  6  2  0  0  0
  6  7  1  0  0  0
  2  7  2  0  0  0
  3  8  1  0  0  0
  4  9  1  0  0  0
  5 10  1  0  0  0
  6 11  1  0  0  0
  7 12  1  0  0  0
 13 14  1  0  0  0
 14 15  2  0  0  0
 15 16  1  0  0  0
 16 17  2  0  0  0
 17 18  1  0  0  0
 13 18  2  0  0  0
 13 19  1  0  0  0
 14 20  1  0  0  0
 15 21  1  0  0  0
 16 22  1  0  0  0
 17 23  1  0  0  0
 18 24  1  0  0  0
M  END
$$$$
