


 30 29  0  0  1  0            999 V2000
    2.3630    4.2388    0.7890 C   0  0  0  0  0  0
    1.1249    3.4474    0.3622 C   0  0  0  0  0  0
    1.3774    2.6997   -0.9487 C   0  0  0  0  0  0
    2.5988    1.7854   -0.8315 C   0  0  0  0  0  0
    3.8369    2.5768   -0.4048 C   0  0  0  0  0  0
    3.5843    3.3245    0.9061 C   0  0  0  0  0  0
    2.1754    4.7502    1.7527 H   0  0  0  0  0  0
    2.5698    5.0172    0.0295 H   0  0  0  0  0  0
    0.8799    2.7120    1.1526 H   0  0  0  0  0  0
    0.2571    4.1260    0.2533 H   0  0  0  0  0  0
    1.5588    3.4382   -1.7531 H   0  0  0  0  0  0
    0.4842    2.1090   -1.2292 H   0  0  0  0  0  0
    2.7863    1.2739   -1.7952 H   0  0  0  0  0  0
    2.3919    1.0070   -0.0721 H   0  0  0  0  0  0
    4.0819    3.3122   -1.1951 H   0  0  0  0  0  0
    4.7046    1.8981   -0.2959 H   0  0  0  0  0  0
    4.4776    3.9152    1.1866 H   0  0  0  0  0  0
    3.4030    2.5859    1.7105 H   0  0  0  0  0  0
    0.9785   -0.0046    1.6557 C   0  0  0  0  0  0
    2.2095    0.5156    2.3476 C   0  0  0  0  0  0
    3.4378    0.0826    2.0364 C   0  0  0  0  0  0
    1.9725    1.5533    3.4114 C   0  0  0  0  0  0
    1.2430   -0.7578    0.8945 H   0  0  0  0  0  0
    0.4449    0.8239    1.1603 H   0  0  0  0  0  0
    0.3004   -0.4703    2.3906 H   0  0  0  0  0  0
    4.3236    0.4726    2.5507 H   0  0  0  0  0  0
    3.5921   -0.6740    1.2586 H   0  0  0  0  0  0
    1.4723    2.4343    2.9751 H   0  0  0  0  0  0
    1.3278    1.1401    4.2053 H   0  0  0  0  0  0
    2.9244    1.8777    3.8644 H   0  0  0  0  0  0
  1  2  1  0  0  0
  2  3  1  0  0  0
  3  4  1  0  0  0
  4  5  1  0  0  0
  5  6  1  0  0  0
  1  6  1  0  0  0
  1  7  1  0  0  0
  1  8  1  0  0  0
  2  9  1  0  0  0
  2 10  1  0  0  0
  3 11  1  0  0  0
  3 12  1  0  0  0
  4 13  1  0  0  0
  4 14  1  0  0  0
  5 15  1  0  0  0
  5 16  1  0  0  0
  6 17  1  0  0  0
  6 18  1  0  0  0
 19 20  1  0  0  0
 20 21  2  0  0  0
 20 22  1  0  0  0
 19 23  1  0  0  0
 19 24  1  0  0  0
 19 25  1  0  0  0
 21 26  1  0  0  0
 21 27  1  0  0  0
 22 28  1  0  0  0
 22 29  1  0  0  0
 22 30  1  0  0  0
M  END
$$$$
