


 19 17  0  0  1  0            999 V2000
   -0.3329    3.0891    2.5595 C   0  0  0  0  0  0
    0.5307    2.9664    1.3890 N   0  0  0  0  0  0
    0.9415    4.2762    0.8923 C   0  0  0  0  0  0
   -1.2774    3.5654    2.2469 H   0  0  0  0  0  0
    0.1144    3.6918    3.3677 H   0  0  0  0  0  0
   -0.5595    2.0843    2.9541 H   0  0  0  0  0  0
    1.3691    2.4313    1.6489 H   0  0  0  0  0  0
    1.4160    4.9042    1.6651 H   0  0  0  0  0  0
    1.6530    4.1451    0.0598 H   0  0  0  0  0  0
    0.0484    4.8003    0.5126 H   0  0  0  0  0  0
    2.5556    1.3461    0.1030 C   0  0  0  0  0  0
    2.3552    1.1467    1.4882 O   0  0  0  0  0  0
    1.3272    0.2020    1.7099 C   0  0  0  0  0  0
    3.3633    2.0877   -0.0159 H   0  0  0  0  0  0
    1.6469    1.7339   -0.3874 H   0  0  0  0  0  0
    2.8573    0.4132   -0.4024 H   0  0  0  0  0  0
    0.3660    0.5408    1.2882 H   0  0  0  0  0  0
    1.5764   -0.7798    1.2732 H   0  0  0  0  0  0
    1.2105    0.0826    2.8002 H   0  0  0  0  0  0
  1  2  1  0  0  0
  2  3  1  0  0  0
  1  4  1  0  0  0
  1  5  1  0  0  0
  1  6  1  0  0  0
  2  7  1  0  0  0
  3  8  1  0  0  0
  3  9  1  0  0  0
  3 10  1  0  0  0
 11 12  1  0  0  0
 12 13  1  0  0  0
 11 14  1  0  0  0
 11 15  1  0  0  0
 11 16  1  0  0  0
 13 17  1  0  0  0
 13 18  1  0  0  0
 13 19  1  0  0  0
M  END
$$$$
