


 19 17  0  0  1  0            999 V2000
   -0.3329    3.0891    2.5595 C   0  0  0  0  0  0
    0.5307    2.9664    1.3890 N   0  0  0  0  0  0
    0.9415    4.2762    0.8923 C   0  0  0  0  0  0
   -1.2774    3.5654    2.2469 H   0  0  0  0  0  0
    0.1144    3.6918    3.3677 H   0  0  0  0  0  0
   -0.5595    2.0843    2.9541 H   0  0  0  0  0  0
    1.3691    2.4313    1.6489 H   0  0  0  0  0  0
    1.4160    4.9042    1.6651 H   0  0  0  0  0  0
    1.6530    4.1451    0.0598 H   0  0  0  0  0  0
    0.0484    4.8003    0.5126 H   0  0  0  0  0  0
    3.5472   -0.0182   -0.1103 C   0  0  0  0  0  0
    3.3469   -0.2175    1.2749 O   0  0  0  0  0  0
    2.3188   -1.1623    1.4965 C   0  0  0  0  0  0
    4.3549    0.7235   -0.2293 H   0  0  0  0  0  0
    2.6385    0.3696   -0.6007 H   0  0  0  0  0  0
    3.8489   -0.9510   -0.6157 H   0  0  0  0  0  0
    1.3576   -0.8234    1.0748 H   0  0  0  0  0  0
    2.5680   -2.1440    1.0598 H   0  0  0  0  0  0
    2.2021   -1.2816    2.5868 H   0  0  0  0  0  0
  1  2  1  0  0  0
  2  3  1  0  0  0
  1  4  1  0  0  0
  1  5  1  0  0  0
  1  6  1  0  0  0
  2  7  1  0  0  0
  3  8  1  0  0  0
  3  9  1  0  0  0
  3 10  1  0  0  0
 11 12  1  0  0  0
 12 13  1  0  0  0
 11 14  1  0  0  0
 11 15  1  0  0  0
 11 16  1  0  0  0
 13 17  1  0  0  0
 13 18  1  0  0  0
 13 19  1  0  0  0
M  END
$$$$
