


 22 21  0  0  1  0            999 V2000
    0.0705    0.3447    2.6578 C   0  0  0  0  0  0
   -0.2764    0.8217    1.2561 C   0  0  0  0  0  0
   -0.8709    2.1627    1.3220 N   0  0  0  0  0  0
    0.7621    1.0572    3.1381 H   0  0  0  0  0  0
    0.5538   -0.6462    2.6240 H   0  0  0  0  0  0
   -0.8417    0.2704    3.2735 H   0  0  0  0  0  0
    0.6489    0.9009    0.6535 H   0  0  0  0  0  0
   -0.9330    0.0759    0.7681 H   0  0  0  0  0  0
   -1.1111    2.4929    0.3808 H   0  0  0  0  0  0
   -1.7537    2.1220    1.8432 H   0  0  0  0  0  0
    1.9661    2.7331   -0.8389 F   0  0  0  0  0  0
    2.8549    2.8243    0.1746 C   0  0  0  0  0  0
    4.2055    2.6642   -0.1021 C   0  0  0  0  0  0
    5.1228    2.7583    0.9441 C   0  0  0  0  0  0
    4.6540    3.0089    2.2261 C   0  0  0  0  0  0
    3.3035    3.1689    2.5027 C   0  0  0  0  0  0
    2.3862    3.0748    1.4566 C   0  0  0  0  0  0
    5.5428    3.1000    3.2397 F   0  0  0  0  0  0
    4.5310    2.4673   -1.1321 H   0  0  0  0  0  0
    6.2006    2.6386    0.7721 H   0  0  0  0  0  0
    2.9780    3.3659    3.5326 H   0  0  0  0  0  0
    1.3083    3.1946    1.6286 H   0  0  0  0  0  0
  1  2  1  0  0  0
  2  3  1  0  0  0
  1  4  1  0  0  0
  1  5  1  0  0  0
  1  6  1  0  0  0
  2  7  1  0  0  0
  2  8  1  0  0  0
  3  9  1  0  0  0
  3 10  1  0  0  0
 11 12  1  0  0  0
 12 13  1  0  0  0
 13 14  2  0  0  0
 14 15  1  0  0  0
 15 16  2  0  0  0
 16 17  1  0  0  0
 12 17  2  0  0  0
 15 18  1  0  0  0
 13 19  1  0  0  0
 14 20  1  0  0  0
 16 21  1  0  0  0
 17 22  1  0  0  0
M  END
$$$$
