


 28 27  0  0  1  0            999 V2000
    1.7943    1.0978   -1.6204 C   0  0  0  0  0  0
    1.0455    2.4270   -1.6830 C   0  0  0  0  0  0
   -0.3650    2.3259   -1.1353 C   0  0  0  0  0  0
   -0.2974    1.9864    0.2413 O   0  0  0  0  0  0
   -1.5867    1.8599    0.8013 C   0  0  0  0  0  0
    1.8645    0.7511   -0.5756 H   0  0  0  0  0  0
    2.8150    1.2066   -2.0242 H   0  0  0  0  0  0
    1.2623    0.3325   -2.2101 H   0  0  0  0  0  0
    1.5889    3.1984   -1.1041 H   0  0  0  0  0  0
    0.9783    2.7777   -2.7308 H   0  0  0  0  0  0
   -0.9028    3.2860   -1.2555 H   0  0  0  0  0  0
   -0.9352    1.5500   -1.6814 H   0  0  0  0  0  0
   -2.1542    2.8031    0.7309 H   0  0  0  0  0  0
   -2.1669    1.0625    0.3072 H   0  0  0  0  0  0
   -1.4674    1.5998    1.8665 H   0  0  0  0  0  0
    2.4114    2.4765    2.0725 O   0  0  0  0  0  0
    2.8658    1.3202    2.6548 C   0  0  0  0  0  0
    4.0527    1.3988    3.3840 C   0  0  0  0  0  0
    4.5620    0.2569    3.9973 C   0  0  0  0  0  0
    3.8956   -0.9649    3.8889 C   0  0  0  0  0  0
    2.7104   -1.0363    3.1589 C   0  0  0  0  0  0
    2.1932    0.1027    2.5414 C   0  0  0  0  0  0
    1.5712    2.2745    1.5936 H   0  0  0  0  0  0
    4.5655    2.3667    3.4604 H   0  0  0  0  0  0
    5.4965    0.3252    4.5698 H   0  0  0  0  0  0
    4.3012   -1.8623    4.3743 H   0  0  0  0  0  0
    2.1752   -1.9905    3.0650 H   0  0  0  0  0  0
    1.2594    0.0447    1.9667 H   0  0  0  0  0  0
  1  2  1  0  0  0
  2  3  1  0  0  0
  3  4  1  0  0  0
  4  5  1  0  0  0
  1  6  1  0  0  0
  1  7  1  0  0  0
  1  8  1  0  0  0
  2  9  1  0  0  0
  2 10  1  0  0  0
  3 11  1  0  0  0
  3 12  1  0  0  0
  5 13  1  0  0  0
  5 14  1  0  0  0
  5 15  1  0  0  0
 16 17  1  0  0  0
 17 18  2  0  0  0
 18 19  1  0  0  0
 19 20  2  0  0  0
 20 21  1  0  0  0
 21 22  2  0  0  0
 17 22  1  0  0  0
 16 23  1  0  0  0
 18 24  1  0  0  0
 19 25  1  0  0  0
 20 26  1  0  0  0
 21 27  1  0  0  0
 22 28  1  0  0  0
M  END
$$$$
