


 19 18  0  0  1  0            999 V2000
    0.1588    3.2177    4.0646 C   0  0  0  0  0  0
    1.0356    2.5288    3.0421 C   0  0  0  0  0  0
    2.1808    2.1671    3.2743 O   0  0  0  0  0  0
    0.4486    2.3366    1.8229 N   0  0  0  0  0  0
    0.7194    3.3255    5.0084 H   0  0  0  0  0  0
   -0.7527    2.6288    4.2622 H   0  0  0  0  0  0
   -0.1391    4.2208    3.7158 H   0  0  0  0  0  0
   -0.5094    2.6402    1.6317 H   0  0  0  0  0  0
    0.9945    1.8750    1.0912 H   0  0  0  0  0  0
    2.5900   -0.1493    0.6715 C   0  0  0  0  0  0
    2.7690   -0.2211   -0.6992 C   0  0  0  0  0  0
    3.2546    1.0388   -1.1316 C   0  0  0  0  0  0
    3.3602    1.8491   -0.0144 C   0  0  0  0  0  0
    2.9534    1.1116    1.0665 N   0  0  0  0  0  0
    2.9249    1.4533    2.0303 H   0  0  0  0  0  0
    2.2364   -0.8872    1.3916 H   0  0  0  0  0  0
    2.5680   -1.0956   -1.3180 H   0  0  0  0  0  0
    3.5039    1.3324   -2.1513 H   0  0  0  0  0  0
    3.6893    2.8822    0.0979 H   0  0  0  0  0  0
  1  2  1  0  0  0
  2  3  2  0  0  0
  2  4  1  0  0  0
  1  5  1  0  0  0
  1  6  1  0  0  0
  1  7  1  0  0  0
  4  8  1  0  0  0
  4  9  1  0  0  0
 10 11  2  0  0  0
 11 12  1  0  0  0
 12 13  2  0  0  0
 13 14  1  0  0  0
 14 15  1  0  0  0
 10 14  1  0  0  0
 10 16  1  0  0  0
 11 17  1  0  0  0
 12 18  1  0  0  0
 13 19  1  0  0  0
M  END
$$$$
