


 19 18  0  0  1  0            999 V2000
   -1.5673    5.0749    7.5376 C   0  0  0  0  0  0
   -0.6904    4.3860    6.5150 C   0  0  0  0  0  0
    0.4548    4.0243    6.7472 O   0  0  0  0  0  0
   -1.2774    4.1938    5.2959 N   0  0  0  0  0  0
   -1.0067    5.1827    8.4814 H   0  0  0  0  0  0
   -2.4788    4.4860    7.7351 H   0  0  0  0  0  0
   -1.8652    6.0780    7.1888 H   0  0  0  0  0  0
   -2.2355    4.4975    5.1047 H   0  0  0  0  0  0
   -0.7315    3.7323    4.5641 H   0  0  0  0  0  0
    2.5900   -0.1493    0.6715 C   0  0  0  0  0  0
    2.7690   -0.2211   -0.6992 C   0  0  0  0  0  0
    3.2546    1.0388   -1.1316 C   0  0  0  0  0  0
    3.3602    1.8491   -0.0144 C   0  0  0  0  0  0
    2.9534    1.1116    1.0665 N   0  0  0  0  0  0
    2.9249    1.4533    2.0303 H   0  0  0  0  0  0
    2.2364   -0.8872    1.3916 H   0  0  0  0  0  0
    2.5680   -1.0956   -1.3180 H   0  0  0  0  0  0
    3.5039    1.3324   -2.1513 H   0  0  0  0  0  0
    3.6893    2.8822    0.0979 H   0  0  0  0  0  0
  1  2  1  0  0  0
  2  3  2  0  0  0
  2  4  1  0  0  0
  1  5  1  0  0  0
  1  6  1  0  0  0
  1  7  1  0  0  0
  4  8  1  0  0  0
  4  9  1  0  0  0
 10 11  2  0  0  0
 11 12  1  0  0  0
 12 13  2  0  0  0
 13 14  1  0  0  0
 14 15  1  0  0  0
 10 14  1  0  0  0
 10 16  1  0  0  0
 11 17  1  0  0  0
 12 18  1  0  0  0
 13 19  1  0  0  0
M  END
$$$$
