


 22 22  0  0  1  0            999 V2000
    0.2455   -5.5622   -0.1828 C   0  0  0  0  0  0
    1.0044   -4.9041   -1.1210 O   0  0  0  0  0  0
    1.2210   -3.6444   -0.4782 C   0  0  0  0  0  0
    0.5638   -3.7398    0.9035 C   0  0  0  0  0  0
    0.5276   -5.1897    1.0828 O   0  0  0  0  0  0
    0.2959   -6.6565   -0.3421 H   0  0  0  0  0  0
   -0.7995   -5.2438   -0.3619 H   0  0  0  0  0  0
    0.8788   -2.7836   -1.0843 H   0  0  0  0  0  0
    2.3173   -3.5538   -0.3537 H   0  0  0  0  0  0
   -0.4464   -3.2887    0.8644 H   0  0  0  0  0  0
    1.1675   -3.1515    1.6210 H   0  0  0  0  0  0
   -3.4182    2.3064   -3.4766 C   0  0  0  0  0  0
   -3.0213    1.1153   -3.9637 O   0  0  0  0  0  0
   -3.1047    1.3592   -5.3749 C   0  0  0  0  0  0
   -4.3508    2.2120   -5.4496 C   0  0  0  0  0  0
   -4.5588    2.5527   -4.1333 O   0  0  0  0  0  0
   -2.7025    3.1429   -3.5929 H   0  0  0  0  0  0
   -3.4909    2.0734   -2.3969 H   0  0  0  0  0  0
   -3.1918    0.3776   -5.8793 H   0  0  0  0  0  0
   -2.2821    1.9166   -5.8629 H   0  0  0  0  0  0
   -5.2197    1.7354   -5.9429 H   0  0  0  0  0  0
   -4.1318    3.1532   -5.9895 H   0  0  0  0  0  0
  1  2  1  0  0  0
  2  3  1  0  0  0
  3  4  1  0  0  0
  4  5  1  0  0  0
  1  5  1  0  0  0
  1  6  1  0  0  0
  1  7  1  0  0  0
  3  8  1  0  0  0
  3  9  1  0  0  0
  4 10  1  0  0  0
  4 11  1  0  0  0
 12 13  1  0  0  0
 13 14  1  0  0  0
 14 15  1  0  0  0
 15 16  1  0  0  0
 12 16  1  0  0  0
 12 17  1  0  0  0
 12 18  1  0  0  0
 14 19  1  0  0  0
 14 20  1  0  0  0
 15 21  1  0  0  0
 15 22  1  0  0  0
M  END
$$$$
