


 22 22  0  0  1  0            999 V2000
    2.2632    4.0065    0.3258 C   0  0  0  0  0  0
    2.8605    5.1893   -0.1041 O   0  0  0  0  0  0
    3.2901    5.8408    1.0371 C   0  0  0  0  0  0
    2.2435    5.3323    1.9988 C   0  0  0  0  0  0
    1.5035    4.3449    1.4366 O   0  0  0  0  0  0
    3.0868    3.2947    0.5270 H   0  0  0  0  0  0
    1.6021    3.5497   -0.4356 H   0  0  0  0  0  0
    3.2123    6.9386    0.9172 H   0  0  0  0  0  0
    4.3144    5.6125    1.3895 H   0  0  0  0  0  0
    1.6343    6.1764    2.3754 H   0  0  0  0  0  0
    2.8090    4.9170    2.8550 H   0  0  0  0  0  0
   -0.7108    5.2161    3.4114 C   0  0  0  0  0  0
   -1.8132    4.5686    3.9167 O   0  0  0  0  0  0
   -1.2454    3.6083    4.8132 C   0  0  0  0  0  0
    0.1031    4.2125    5.2299 C   0  0  0  0  0  0
    0.1824    5.4444    4.4815 O   0  0  0  0  0  0
   -0.9984    6.1329    2.8617 H   0  0  0  0  0  0
   -0.2343    4.5259    2.6889 H   0  0  0  0  0  0
   -1.0628    2.6472    4.2950 H   0  0  0  0  0  0
   -1.9293    3.4090    5.6606 H   0  0  0  0  0  0
    0.9501    3.6091    4.8503 H   0  0  0  0  0  0
    0.2490    4.3497    6.3187 H   0  0  0  0  0  0
  1  2  1  0  0  0
  2  3  1  0  0  0
  3  4  1  0  0  0
  4  5  1  0  0  0
  1  5  1  0  0  0
  1  6  1  0  0  0
  1  7  1  0  0  0
  3  8  1  0  0  0
  3  9  1  0  0  0
  4 10  1  0  0  0
  4 11  1  0  0  0
 12 13  1  0  0  0
 13 14  1  0  0  0
 14 15  1  0  0  0
 15 16  1  0  0  0
 12 16  1  0  0  0
 12 17  1  0  0  0
 12 18  1  0  0  0
 14 19  1  0  0  0
 14 20  1  0  0  0
 15 21  1  0  0  0
 15 22  1  0  0  0
M  END
$$$$
