


 18 18  0  0  1  0            999 V2000
    5.1200   -3.1472    9.1862 C   0  0  0  0  0  0
    4.2083   -3.5670    8.3125 N   0  0  0  0  0  0
    3.2899   -4.1800    9.1100 C   0  0  0  0  0  0
    3.6344   -4.0667   10.3890 C   0  0  0  0  0  0
    4.9453   -3.5810   10.4163 N   0  0  0  0  0  0
    5.6328   -3.3674   11.1431 H   0  0  0  0  0  0
    6.0224   -2.5642    9.0025 H   0  0  0  0  0  0
    2.4257   -4.6500    8.6406 H   0  0  0  0  0  0
    3.0810   -4.4430   11.2493 H   0  0  0  0  0  0
    6.8229   -4.6927    1.1218 C   0  0  0  0  0  0
    7.8861   -4.5403    0.3532 N   0  0  0  0  0  0
    8.7605   -3.7378    1.1379 C   0  0  0  0  0  0
    8.1344   -3.5260    2.3644 C   0  0  0  0  0  0
    7.0191   -4.2481    2.3137 N   0  0  0  0  0  0
    6.4590   -4.4115    3.1539 H   0  0  0  0  0  0
    6.0232   -5.3758    0.8354 H   0  0  0  0  0  0
    9.7712   -3.4704    0.8296 H   0  0  0  0  0  0
    8.4650   -3.0490    3.2871 H   0  0  0  0  0  0
  1  2  2  0  0  0
  2  3  1  0  0  0
  3  4  2  0  0  0
  4  5  1  0  0  0
  5  6  1  0  0  0
  1  5  1  0  0  0
  1  7  1  0  0  0
  3  8  1  0  0  0
  4  9  1  0  0  0
 10 11  2  0  0  0
 11 12  1  0  0  0
 12 13  2  0  0  0
 13 14  1  0  0  0
 14 15  1  0  0  0
 10 14  1  0  0  0
 10 16  1  0  0  0
 12 17  1  0  0  0
 13 18  1  0  0  0
M  END
$$$$
