


 18 18  0  0  1  0            999 V2000
    0.0000    0.0000    0.0000 C   0  0  0  0  0  0
    0.0323    1.1232   -0.6126 N   0  0  0  0  0  0
   -0.2549    1.9951    0.4483 C   0  0  0  0  0  0
   -0.5570    1.3453    1.5988 C   0  0  0  0  0  0
   -0.2855    0.0061    1.3086 N   0  0  0  0  0  0
   -0.4321   -0.8316    1.8772 H   0  0  0  0  0  0
    0.3455   -0.8579   -0.5769 H   0  0  0  0  0  0
   -0.3183    3.0833    0.4476 H   0  0  0  0  0  0
   -0.9650    1.6846    2.5509 H   0  0  0  0  0  0
   -4.3656    4.4768   -4.2235 C   0  0  0  0  0  0
   -3.6625    3.3729   -3.9921 N   0  0  0  0  0  0
   -2.7496    3.7796   -3.0100 C   0  0  0  0  0  0
   -2.9597    5.1249   -2.6778 C   0  0  0  0  0  0
   -4.0385    5.5496   -3.4116 N   0  0  0  0  0  0
   -4.5203    6.4446   -3.2965 H   0  0  0  0  0  0
   -5.2038    4.3804   -4.9135 H   0  0  0  0  0  0
   -1.9871    3.1421   -2.5626 H   0  0  0  0  0  0
   -2.5187    5.8769   -2.0234 H   0  0  0  0  0  0
  1  2  2  0  0  0
  2  3  1  0  0  0
  3  4  2  0  0  0
  4  5  1  0  0  0
  5  6  1  0  0  0
  1  5  1  0  0  0
  1  7  1  0  0  0
  3  8  1  0  0  0
  4  9  1  0  0  0
 10 11  2  0  0  0
 11 12  1  0  0  0
 12 13  2  0  0  0
 13 14  1  0  0  0
 14 15  1  0  0  0
 10 14  1  0  0  0
 10 16  1  0  0  0
 12 17  1  0  0  0
 13 18  1  0  0  0
M  END
$$$$
