


 18 18  0  0  1  0            999 V2000
    5.1200   -3.1472    9.1862 C   0  0  0  0  0  0
    4.2083   -3.5670    8.3125 N   0  0  0  0  0  0
    3.2899   -4.1800    9.1100 C   0  0  0  0  0  0
    3.6344   -4.0667   10.3890 C   0  0  0  0  0  0
    4.9453   -3.5810   10.4163 N   0  0  0  0  0  0
    5.6328   -3.3674   11.1431 H   0  0  0  0  0  0
    6.0224   -2.5642    9.0025 H   0  0  0  0  0  0
    2.4257   -4.6500    8.6406 H   0  0  0  0  0  0
    3.0810   -4.4430   11.2493 H   0  0  0  0  0  0
    5.9546   -4.5310    2.9162 C   0  0  0  0  0  0
    7.0178   -4.3786    2.1476 N   0  0  0  0  0  0
    7.8922   -3.5761    2.9323 C   0  0  0  0  0  0
    7.2661   -3.3643    4.1588 C   0  0  0  0  0  0
    6.1508   -4.0864    4.1081 N   0  0  0  0  0  0
    5.5907   -4.2497    4.9484 H   0  0  0  0  0  0
    5.1549   -5.2140    2.6298 H   0  0  0  0  0  0
    8.9029   -3.3087    2.6240 H   0  0  0  0  0  0
    7.5967   -2.8873    5.0815 H   0  0  0  0  0  0
  1  2  2  0  0  0
  2  3  1  0  0  0
  3  4  2  0  0  0
  4  5  1  0  0  0
  5  6  1  0  0  0
  1  5  1  0  0  0
  1  7  1  0  0  0
  3  8  1  0  0  0
  4  9  1  0  0  0
 10 11  2  0  0  0
 11 12  1  0  0  0
 12 13  2  0  0  0
 13 14  1  0  0  0
 14 15  1  0  0  0
 10 14  1  0  0  0
 10 16  1  0  0  0
 12 17  1  0  0  0
 13 18  1  0  0  0
M  END
$$$$
