


 18 18  0  0  1  0            999 V2000
    0.0000    0.0000    0.0000 C   0  0  0  0  0  0
   -0.8138    0.6838    0.8306 N   0  0  0  0  0  0
   -1.1150    1.8740    0.1912 C   0  0  0  0  0  0
   -0.5189    1.8178   -1.0770 C   0  0  0  0  0  0
    0.2956    0.7220   -1.0527 N   0  0  0  0  0  0
    0.7878    0.3552   -1.8711 H   0  0  0  0  0  0
    0.5542   -0.8964    0.2782 H   0  0  0  0  0  0
   -1.7799    2.6267    0.6149 H   0  0  0  0  0  0
   -0.5177    2.4790   -1.9435 H   0  0  0  0  0  0
   -5.6554    0.6970    0.4754 C   0  0  0  0  0  0
   -6.4028   -0.0207    1.3251 N   0  0  0  0  0  0
   -5.5628   -0.6018    2.2218 C   0  0  0  0  0  0
   -4.2953   -0.0997    2.0161 C   0  0  0  0  0  0
   -4.3507    0.5760    0.7869 N   0  0  0  0  0  0
   -3.7038    1.2680    0.4008 H   0  0  0  0  0  0
   -6.0948    1.3509   -0.2779 H   0  0  0  0  0  0
   -5.8721   -1.3454    2.9564 H   0  0  0  0  0  0
   -3.3611   -0.1670    2.5738 H   0  0  0  0  0  0
  1  2  2  0  0  0
  2  3  1  0  0  0
  3  4  2  0  0  0
  4  5  1  0  0  0
  5  6  1  0  0  0
  1  5  1  0  0  0
  1  7  1  0  0  0
  3  8  1  0  0  0
  4  9  1  0  0  0
 10 11  2  0  0  0
 11 12  1  0  0  0
 12 13  2  0  0  0
 13 14  1  0  0  0
 14 15  1  0  0  0
 10 14  1  0  0  0
 10 16  1  0  0  0
 12 17  1  0  0  0
 13 18  1  0  0  0
M  END
$$$$
