


 18 18  0  0  1  0            999 V2000
   -0.6465   -9.6898  -11.2883 C   0  0  0  0  0  0
    0.5549   -9.2823  -10.9985 N   0  0  0  0  0  0
    0.4268   -8.7794   -9.6685 C   0  0  0  0  0  0
   -0.8437   -8.8814   -9.2123 C   0  0  0  0  0  0
   -1.5703   -9.4778  -10.2949 N   0  0  0  0  0  0
   -2.5478   -9.7448  -10.4350 H   0  0  0  0  0  0
   -0.8792  -10.0954  -12.2729 H   0  0  0  0  0  0
    1.2521   -8.4501   -9.0372 H   0  0  0  0  0  0
   -1.2390   -8.6778   -8.2171 H   0  0  0  0  0  0
   -7.0519   -9.6051  -11.1146 C   0  0  0  0  0  0
   -5.8654   -9.2151  -11.5380 N   0  0  0  0  0  0
   -5.7179   -9.9390  -12.7508 C   0  0  0  0  0  0
   -6.9241  -10.5803  -13.0320 C   0  0  0  0  0  0
   -7.7446  -10.3394  -12.0044 N   0  0  0  0  0  0
   -8.7093  -10.6666  -11.9106 H   0  0  0  0  0  0
   -7.4286   -9.3872  -10.1153 H   0  0  0  0  0  0
   -4.7968   -9.9827  -13.3319 H   0  0  0  0  0  0
   -7.3036  -11.2399  -13.8124 H   0  0  0  0  0  0
  1  2  2  0  0  0
  2  3  1  0  0  0
  3  4  2  0  0  0
  4  5  1  0  0  0
  5  6  1  0  0  0
  1  5  1  0  0  0
  1  7  1  0  0  0
  3  8  1  0  0  0
  4  9  1  0  0  0
 10 11  2  0  0  0
 11 12  1  0  0  0
 12 13  2  0  0  0
 13 14  1  0  0  0
 14 15  1  0  0  0
 10 14  1  0  0  0
 10 16  1  0  0  0
 12 17  1  0  0  0
 13 18  1  0  0  0
M  END
$$$$
