


 18 18  0  0  1  0            999 V2000
   -7.9047    4.2022  -12.2683 C   0  0  0  0  0  0
   -7.1295    3.4050  -11.6090 N   0  0  0  0  0  0
   -5.9401    3.3113  -12.3659 C   0  0  0  0  0  0
   -6.0238    4.1774  -13.3703 C   0  0  0  0  0  0
   -7.2999    4.7449  -13.3084 N   0  0  0  0  0  0
   -7.7281    5.4651  -13.8954 H   0  0  0  0  0  0
   -8.9727    4.2107  -12.0506 H   0  0  0  0  0  0
   -5.1404    2.5926  -12.1871 H   0  0  0  0  0  0
   -5.3817    4.4854  -14.1955 H   0  0  0  0  0  0
   -3.4916   -0.8747   -8.5741 C   0  0  0  0  0  0
   -2.6647   -1.5302   -7.7519 N   0  0  0  0  0  0
   -2.5548   -0.6447   -6.5670 C   0  0  0  0  0  0
   -3.2210    0.5414   -6.8808 C   0  0  0  0  0  0
   -3.9309    0.3268   -8.0535 N   0  0  0  0  0  0
   -4.7299    0.8676   -8.3938 H   0  0  0  0  0  0
   -3.9106   -1.3714   -9.4493 H   0  0  0  0  0  0
   -2.1021   -0.9341   -5.6186 H   0  0  0  0  0  0
   -3.1905    1.4497   -6.2791 H   0  0  0  0  0  0
  1  2  2  0  0  0
  2  3  1  0  0  0
  3  4  2  0  0  0
  4  5  1  0  0  0
  5  6  1  0  0  0
  1  5  1  0  0  0
  1  7  1  0  0  0
  3  8  1  0  0  0
  4  9  1  0  0  0
 10 11  2  0  0  0
 11 12  1  0  0  0
 12 13  2  0  0  0
 13 14  1  0  0  0
 14 15  1  0  0  0
 10 14  1  0  0  0
 10 16  1  0  0  0
 12 17  1  0  0  0
 13 18  1  0  0  0
M  END
$$$$
