


 11  9  0  0  1  0            999 V2000
    0.0000    0.0000    0.0000 F   0  0  0  0  0  0
    0.9544    0.7080    0.6540 C   0  0  0  0  0  0
    0.8065    2.2574    0.6296 C   0  0  0  0  0  0
    1.8679    2.7017    1.3629 F   0  0  0  0  0  0
    0.9929    2.6020   -0.6409 F   0  0  0  0  0  0
   -0.3738    2.5587    1.2076 F   0  0  0  0  0  0
    0.9940    0.2251    1.8770 F   0  0  0  0  0  0
    2.1105    0.3479    0.0995 F   0  0  0  0  0  0
   -1.6860   -2.7621    0.4450 O   0  0  0  0  0  0
   -2.4866   -2.3269    0.0738 H   0  0  0  0  0  0
   -1.9249   -2.9675    1.3772 H   0  0  0  0  0  0
  1  2  1  0  0  0
  2  3  1  0  0  0
  3  4  1  0  0  0
  3  5  1  0  0  0
  3  6  1  0  0  0
  2  7  1  0  0  0
  2  8  1  0  0  0
  9 10  1  0  0  0
  9 11  1  0  0  0
M  END
$$$$
