


 21 20  0  0  1  0            999 V2000
    0.9488    0.1274   -1.9546 Br  0  0  0  0  0  0
    2.1881    0.0864   -0.5338 C   0  0  0  0  0  0
    3.2689    0.9667   -0.5458 C   0  0  0  0  0  0
    4.1811    0.9298    0.5092 C   0  0  0  0  0  0
    4.0132    0.0260    1.5585 C   0  0  0  0  0  0
    2.9255   -0.8473    1.5532 C   0  0  0  0  0  0
    2.0039   -0.8236    0.5059 C   0  0  0  0  0  0
    3.3932    1.6748   -1.3757 H   0  0  0  0  0  0
    5.0349    1.6201    0.5069 H   0  0  0  0  0  0
    4.7348    0.0021    2.3858 H   0  0  0  0  0  0
    2.7871   -1.5613    2.3758 H   0  0  0  0  0  0
    1.1449   -1.5073    0.4936 H   0  0  0  0  0  0
    0.4639    2.9346    1.2073 C   0  0  0  0  0  0
    0.8550    3.6225    0.0358 O   0  0  0  0  0  0
   -0.2744    4.1543   -0.6277 C   0  0  0  0  0  0
    1.3764    2.5408    1.6857 H   0  0  0  0  0  0
   -0.2059    2.0889    0.9775 H   0  0  0  0  0  0
   -0.0465    3.6038    1.9203 H   0  0  0  0  0  0
   -0.9757    3.3607   -0.9360 H   0  0  0  0  0  0
   -0.8163    4.8756    0.0069 H   0  0  0  0  0  0
    0.0825    4.6784   -1.5302 H   0  0  0  0  0  0
  1  2  1  0  0  0
  2  3  1  0  0  0
  3  4  2  0  0  0
  4  5  1  0  0  0
  5  6  2  0  0  0
  6  7  1  0  0  0
  2  7  2  0  0  0
  3  8  1  0  0  0
  4  9  1  0  0  0
  5 10  1  0  0  0
  6 11  1  0  0  0
  7 12  1  0  0  0
 13 14  1  0  0  0
 14 15  1  0  0  0
 13 16  1  0  0  0
 13 17  1  0  0  0
 13 18  1  0  0  0
 15 19  1  0  0  0
 15 20  1  0  0  0
 15 21  1  0  0  0
M  END
$$$$
