


 15 13  0  0  1  0            999 V2000
    0.6528    2.3735    2.9046 C   0  0  0  0  0  0
   -0.0630    2.3552    1.5722 C   0  0  0  0  0  0
   -1.9637    2.0471    1.7979 Br  0  0  0  0  0  0
    1.7291    2.5505    2.7403 H   0  0  0  0  0  0
    0.5305    1.4102    3.4278 H   0  0  0  0  0  0
    0.2586    3.1767    3.5496 H   0  0  0  0  0  0
    0.0273    3.3133    1.0251 H   0  0  0  0  0  0
    0.2987    1.5505    0.9036 H   0  0  0  0  0  0
    2.8643    0.4040   -0.3687 O   0  0  0  0  0  0
    3.6789    1.3659   -0.3173 C   0  0  0  0  0  0
    3.4678    2.5631    0.0200 O   0  0  0  0  0  0
    5.1486    1.0213   -0.6845 C   0  0  0  0  0  0
    5.6764    0.7087    0.2322 H   0  0  0  0  0  0
    5.1939    0.1963   -1.4152 H   0  0  0  0  0  0
    5.6690    1.8962   -1.1091 H   0  0  0  0  0  0
  1  2  1  0  0  0
  2  3  1  0  0  0
  1  4  1  0  0  0
  1  5  1  0  0  0
  1  6  1  0  0  0
  2  7  1  0  0  0
  2  8  1  0  0  0
  9 10  1  0  0  0
 10 11  2  0  0  0
 10 12  1  0  0  0
 12 13  1  0  0  0
 12 14  1  0  0  0
 12 15  1  0  0  0
M  CHG  1   9  -1
M  END
$$$$
