


 22 20  0  0  1  0            999 V2000
   -0.4267    2.7155   -1.5938 C   0  0  0  0  0  0
    0.3770    1.4617   -1.7689 C   0  0  0  0  0  0
    1.7070    1.3929   -1.6657 C   0  0  0  0  0  0
    0.2360    3.5680   -1.3686 H   0  0  0  0  0  0
   -1.1433    2.5980   -0.7635 H   0  0  0  0  0  0
   -0.9896    2.9411   -2.5151 H   0  0  0  0  0  0
   -0.1807    0.5440   -1.9976 H   0  0  0  0  0  0
    2.2410    0.4459   -1.8043 H   0  0  0  0  0  0
    2.3021    2.2849   -1.4387 H   0  0  0  0  0  0
    0.5372    3.1268    3.7918 C   0  0  0  0  0  0
    0.8712    1.9278    3.0298 N   0  0  0  0  0  0
    1.0985    0.7395    3.5780 C   0  0  0  0  0  0
    1.3999   -0.3143    2.8103 N   0  0  0  0  0  0
    1.4563   -0.2071    1.7945 H   0  0  0  0  0  0
    1.5739   -1.2268    3.2388 H   0  0  0  0  0  0
    1.0261    0.5947    4.9029 N   0  0  0  0  0  0
    0.4033    3.9614    3.0832 H   0  0  0  0  0  0
    1.3423    3.3907    4.4980 H   0  0  0  0  0  0
   -0.3991    2.9936    4.3594 H   0  0  0  0  0  0
    0.9350    2.0033    2.0115 H   0  0  0  0  0  0
    0.7959    1.3983    5.4925 H   0  0  0  0  0  0
    1.2005   -0.3189    5.3287 H   0  0  0  0  0  0
  1  2  1  0  0  0
  2  3  2  0  0  0
  1  4  1  0  0  0
  1  5  1  0  0  0
  1  6  1  0  0  0
  2  7  1  0  0  0
  3  8  1  0  0  0
  3  9  1  0  0  0
 10 11  1  0  0  0
 11 12  1  0  0  0
 12 13  2  0  0  0
 13 14  1  0  0  0
 13 15  1  0  0  0
 12 16  1  0  0  0
 10 17  1  0  0  0
 10 18  1  0  0  0
 10 19  1  0  0  0
 11 20  1  0  0  0
 16 21  1  0  0  0
 16 22  1  0  0  0
M  CHG  1  13   1
M  END
$$$$
