


 19 17  0  0  1  0            999 V2000
    1.4443   -0.5420    2.0424 C   0  0  0  0  0  0
    2.2384    0.3010    2.9377 C   0  0  0  0  0  0
    2.8987    1.0021    3.6818 C   0  0  0  0  0  0
    3.6929    1.8457    4.5764 C   0  0  0  0  0  0
    2.0921   -1.0107    1.2827 H   0  0  0  0  0  0
    0.6780    0.0614    1.5275 H   0  0  0  0  0  0
    0.9392   -1.3388    2.6140 H   0  0  0  0  0  0
    4.7619    1.7853    4.3115 H   0  0  0  0  0  0
    3.3700    2.8975    4.4983 H   0  0  0  0  0  0
    3.5705    1.5170    5.6222 H   0  0  0  0  0  0
   -1.7615    5.2391   -1.0706 C   0  0  0  0  0  0
   -2.9582    4.5909   -0.6880 O   0  0  0  0  0  0
   -3.2675    4.8766    0.6616 C   0  0  0  0  0  0
   -1.5653    4.9857   -2.1260 H   0  0  0  0  0  0
   -0.9048    4.9026   -0.4628 H   0  0  0  0  0  0
   -1.8468    6.3352   -0.9819 H   0  0  0  0  0  0
   -2.4752    4.5246    1.3434 H   0  0  0  0  0  0
   -3.4172    5.9572    0.8243 H   0  0  0  0  0  0
   -4.2046    4.3503    0.9098 H   0  0  0  0  0  0
  1  2  1  0  0  0
  2  3  3  0  0  0
  3  4  1  0  0  0
  1  5  1  0  0  0
  1  6  1  0  0  0
  1  7  1  0  0  0
  4  8  1  0  0  0
  4  9  1  0  0  0
  4 10  1  0  0  0
 11 12  1  0  0  0
 12 13  1  0  0  0
 11 14  1  0  0  0
 11 15  1  0  0  0
 11 16  1  0  0  0
 13 17  1  0  0  0
 13 18  1  0  0  0
 13 19  1  0  0  0
M  END
$$$$
