


 27 26  0  0  1  0            999 V2000
    0.0697    0.7068   -1.4687 C   0  0  0  0  0  0
    1.5176    0.8975   -1.0423 C   0  0  0  0  0  0
    1.7329    2.3621   -0.6910 C   0  0  0  0  0  0
    0.7663    2.7857    0.2711 O   0  0  0  0  0  0
   -0.5280    2.5695   -0.2262 C   0  0  0  0  0  0
   -0.8108    1.2161   -0.4663 O   0  0  0  0  0  0
   -0.1940   -0.3593   -1.6077 H   0  0  0  0  0  0
   -0.1224    1.2286   -2.4259 H   0  0  0  0  0  0
    1.7303    0.2679   -0.1569 H   0  0  0  0  0  0
    2.2064    0.5851   -1.8506 H   0  0  0  0  0  0
    1.6498    2.9923   -1.5973 H   0  0  0  0  0  0
    2.7274    2.5481   -0.2417 H   0  0  0  0  0  0
   -0.6804    3.1574   -1.1518 H   0  0  0  0  0  0
   -1.2482    2.9383    0.5292 H   0  0  0  0  0  0
    1.6132    2.0608    3.9942 C   0  0  0  0  0  0
    0.7406    1.4494    2.9968 N   0  0  0  0  0  0
   -0.0566    0.4156    3.2421 C   0  0  0  0  0  0
   -0.8285   -0.0895    2.2728 N   0  0  0  0  0  0
   -0.8068    0.3210    1.3361 H   0  0  0  0  0  0
   -1.4403   -0.8859    2.4683 H   0  0  0  0  0  0
   -0.0884   -0.1233    4.4627 N   0  0  0  0  0  0
    2.1562    2.8931    3.5157 H   0  0  0  0  0  0
    2.3496    1.3364    4.3810 H   0  0  0  0  0  0
    1.0337    2.4608    4.8432 H   0  0  0  0  0  0
    0.7401    1.8379    2.0505 H   0  0  0  0  0  0
    0.5006    0.2605    5.2059 H   0  0  0  0  0  0
   -0.7010   -0.9196    4.6554 H   0  0  0  0  0  0
  1  2  1  0  0  0
  2  3  1  0  0  0
  3  4  1  0  0  0
  4  5  1  0  0  0
  5  6  1  0  0  0
  1  6  1  0  0  0
  1  7  1  0  0  0
  1  8  1  0  0  0
  2  9  1  0  0  0
  2 10  1  0  0  0
  3 11  1  0  0  0
  3 12  1  0  0  0
  5 13  1  0  0  0
  5 14  1  0  0  0
 15 16  1  0  0  0
 16 17  1  0  0  0
 17 18  2  0  0  0
 18 19  1  0  0  0
 18 20  1  0  0  0
 17 21  1  0  0  0
 15 22  1  0  0  0
 15 23  1  0  0  0
 15 24  1  0  0  0
 16 25  1  0  0  0
 21 26  1  0  0  0
 21 27  1  0  0  0
M  CHG  1  18   1
M  END
$$$$
