


 25 23  0  0  1  0            999 V2000
    2.3569    1.8820    0.4905 C   0  0  0  0  0  0
    0.9949    2.3585    0.9940 C   0  0  0  0  0  0
   -0.1564    1.6733    0.2586 C   0  0  0  0  0  0
    2.4544    0.7934    0.6392 H   0  0  0  0  0  0
    3.1759    2.3857    1.0310 H   0  0  0  0  0  0
    2.4589    2.1006   -0.5858 H   0  0  0  0  0  0
    0.9122    2.1495    2.0780 H   0  0  0  0  0  0
    0.9167    3.4540    0.8555 H   0  0  0  0  0  0
   -0.0999    0.5813    0.4035 H   0  0  0  0  0  0
   -1.1312    2.0280    0.6336 H   0  0  0  0  0  0
   -0.0955    1.8885   -0.8214 H   0  0  0  0  0  0
    0.6991   -1.5096    2.0449 C   0  0  0  0  0  0
    0.3769   -0.4383    3.0862 C   0  0  0  0  0  0
    1.6322    0.1778    3.6997 C   0  0  0  0  0  0
    1.3100    1.2491    4.7410 C   0  0  0  0  0  0
   -0.2252   -1.9358    1.6198 H   0  0  0  0  0  0
    1.2815   -2.3238    2.5080 H   0  0  0  0  0  0
    1.2946   -1.0732    1.2254 H   0  0  0  0  0  0
   -0.2211    0.3655    2.6153 H   0  0  0  0  0  0
   -0.2342   -0.8825    3.8952 H   0  0  0  0  0  0
    2.2303   -0.6260    4.1706 H   0  0  0  0  0  0
    2.2434    0.6220    2.8906 H   0  0  0  0  0  0
    0.7145    0.8127    5.5605 H   0  0  0  0  0  0
    0.7276    2.0633    4.2779 H   0  0  0  0  0  0
    2.2343    1.6753    5.1660 H   0  0  0  0  0  0
  1  2  1  0  0  0
  2  3  1  0  0  0
  1  4  1  0  0  0
  1  5  1  0  0  0
  1  6  1  0  0  0
  2  7  1  0  0  0
  2  8  1  0  0  0
  3  9  1  0  0  0
  3 10  1  0  0  0
  3 11  1  0  0  0
 12 13  1  0  0  0
 13 14  1  0  0  0
 14 15  1  0  0  0
 12 16  1  0  0  0
 12 17  1  0  0  0
 12 18  1  0  0  0
 13 19  1  0  0  0
 13 20  1  0  0  0
 14 21  1  0  0  0
 14 22  1  0  0  0
 15 23  1  0  0  0
 15 24  1  0  0  0
 15 25  1  0  0  0
M  END
$$$$
