


 18 16  0  0  1  0            999 V2000
    1.6367   -1.0869    2.2371 C   0  0  0  0  0  0
    0.7692    0.1295    2.3641 C   0  0  0  0  0  0
   -0.0371    0.5895    1.4036 C   0  0  0  0  0  0
    1.5131   -1.5443    1.2410 H   0  0  0  0  0  0
    1.3648   -1.8327    3.0029 H   0  0  0  0  0  0
    2.6976   -0.8162    2.3707 H   0  0  0  0  0  0
    0.8105    0.6694    3.3192 H   0  0  0  0  0  0
   -0.6492    1.4860    1.5546 H   0  0  0  0  0  0
   -0.1085    0.0809    0.4354 H   0  0  0  0  0  0
    3.6287    3.2265    2.2623 C   0  0  0  0  0  0
    4.2063    1.9714    1.9629 O   0  0  0  0  0  0
    4.2090    1.7468    0.5671 C   0  0  0  0  0  0
    3.6503    3.3531    3.3578 H   0  0  0  0  0  0
    2.5810    3.2832    1.9222 H   0  0  0  0  0  0
    4.1935    4.0542    1.8013 H   0  0  0  0  0  0
    3.1861    1.7403    0.1545 H   0  0  0  0  0  0
    4.7986    2.5113    0.0336 H   0  0  0  0  0  0
    4.6673    0.7599    0.3868 H   0  0  0  0  0  0
  1  2  1  0  0  0
  2  3  2  0  0  0
  1  4  1  0  0  0
  1  5  1  0  0  0
  1  6  1  0  0  0
  2  7  1  0  0  0
  3  8  1  0  0  0
  3  9  1  0  0  0
 10 11  1  0  0  0
 11 12  1  0  0  0
 10 13  1  0  0  0
 10 14  1  0  0  0
 10 15  1  0  0  0
 12 16  1  0  0  0
 12 17  1  0  0  0
 12 18  1  0  0  0
M  END
$$$$
