


 19 17  0  0  1  0            999 V2000
    4.7149    0.4820   -1.8029 C   0  0  0  0  0  0
    3.6297    0.5404   -0.7526 C   0  0  0  0  0  0
    2.9923   -0.4481   -0.4279 O   0  0  0  0  0  0
    3.3794    1.8935   -0.1276 C   0  0  0  0  0  0
    4.8215   -0.5455   -2.1894 H   0  0  0  0  0  0
    5.6805    0.7984   -1.3737 H   0  0  0  0  0  0
    4.4680    1.1507   -2.6446 H   0  0  0  0  0  0
    4.2915    2.2565    0.3752 H   0  0  0  0  0  0
    3.0893    2.6246   -0.9008 H   0  0  0  0  0  0
    2.5687    1.8292    0.6176 H   0  0  0  0  0  0
   -1.4628   -0.2443    3.8592 C   0  0  0  0  0  0
   -0.5354   -0.8228    2.8146 C   0  0  0  0  0  0
    0.2891    0.2434    2.3359 O   0  0  0  0  0  0
   -2.0881    0.5499    3.4177 H   0  0  0  0  0  0
   -0.8805    0.1876    4.6905 H   0  0  0  0  0  0
   -2.1243   -1.0289    4.2634 H   0  0  0  0  0  0
    0.0861   -1.6264    3.2543 H   0  0  0  0  0  0
   -1.1189   -1.2648    1.9842 H   0  0  0  0  0  0
    0.8948   -0.1215    1.6574 H   0  0  0  0  0  0
  1  2  1  0  0  0
  2  3  2  0  0  0
  2  4  1  0  0  0
  1  5  1  0  0  0
  1  6  1  0  0  0
  1  7  1  0  0  0
  4  8  1  0  0  0
  4  9  1  0  0  0
  4 10  1  0  0  0
 11 12  1  0  0  0
 12 13  1  0  0  0
 11 14  1  0  0  0
 11 15  1  0  0  0
 11 16  1  0  0  0
 12 17  1  0  0  0
 12 18  1  0  0  0
 13 19  1  0  0  0
M  END
$$$$
