


 22 21  0  0  1  0            999 V2000
   -0.8744    2.1960    2.6812 C   0  0  0  0  0  0
    0.4544    2.5551    3.3397 C   0  0  0  0  0  0
    0.9140    3.8477    2.6723 C   0  0  0  0  0  0
    0.8267    3.5947    1.1701 C   0  0  0  0  0  0
   -0.6902    2.6074    0.9091 S   0  0  0  0  0  0
   -1.7072    2.7837    3.1132 H   0  0  0  0  0  0
   -1.1315    1.1240    2.7814 H   0  0  0  0  0  0
    0.3452    2.6582    4.4365 H   0  0  0  0  0  0
    1.1948    1.7546    3.1490 H   0  0  0  0  0  0
    1.9386    4.1403    2.9723 H   0  0  0  0  0  0
    0.2324    4.6737    2.9529 H   0  0  0  0  0  0
    1.7052    3.0268    0.8079 H   0  0  0  0  0  0
    0.7608    4.5272    0.5771 H   0  0  0  0  0  0
    4.4511   -2.1479    0.6503 C   0  0  0  0  0  0
    3.5901   -0.9154    0.8196 C   0  0  0  0  0  0
    3.9680    0.0934    1.3990 O   0  0  0  0  0  0
    2.3419   -1.0108    0.2710 N   0  0  0  0  0  0
    5.4317   -1.9722    1.1237 H   0  0  0  0  0  0
    4.6112   -2.3726   -0.4176 H   0  0  0  0  0  0
    3.9819   -3.0245    1.1278 H   0  0  0  0  0  0
    2.0287   -1.8559   -0.2130 H   0  0  0  0  0  0
    1.7147   -0.2070    0.3547 H   0  0  0  0  0  0
  1  2  1  0  0  0
  2  3  1  0  0  0
  3  4  1  0  0  0
  4  5  1  0  0  0
  1  5  1  0  0  0
  1  6  1  0  0  0
  1  7  1  0  0  0
  2  8  1  0  0  0
  2  9  1  0  0  0
  3 10  1  0  0  0
  3 11  1  0  0  0
  4 12  1  0  0  0
  4 13  1  0  0  0
 14 15  1  0  0  0
 15 16  2  0  0  0
 15 17  1  0  0  0
 14 18  1  0  0  0
 14 19  1  0  0  0
 14 20  1  0  0  0
 17 21  1  0  0  0
 17 22  1  0  0  0
M  END
$$$$
