


  4  2  0  0  1  0            999 V2000
   -4.3001    2.6418    2.9227 O   0  0  0  0  0  0
   -3.7929    1.8757    2.5705 H   0  0  0  0  0  0
   -3.6164    3.2373    3.3049 H   0  0  0  0  0  0
    0.0000    0.0000    0.0000 Ar  0  0  0  0  0  0
  1  2  1  0  0  0
  1  3  1  0  0  0
M  END
$$$$
