


  4  2  0  0  1  0            999 V2000
    1.4694   -0.0969    2.6218 O   0  0  0  0  0  0
    2.4029    0.0808    2.8772 H   0  0  0  0  0  0
    1.5137   -0.9104    2.0700 H   0  0  0  0  0  0
    0.0000    0.0000    0.0000 Ar  0  0  0  0  0  0
  1  2  1  0  0  0
  1  3  1  0  0  0
M  END
$$$$
