


  4  2  0  0  1  0            999 V2000
   -2.6524    0.3036    4.5515 O   0  0  0  0  0  0
   -2.9102   -0.6435    4.6204 H   0  0  0  0  0  0
   -1.6946    0.3169    4.7765 H   0  0  0  0  0  0
    0.0000    0.0000    0.0000 Ar  0  0  0  0  0  0
  1  2  1  0  0  0
  1  3  1  0  0  0
M  END
$$$$
