


  4  2  0  0  1  0            999 V2000
    2.1010   -1.8999   -1.9568 O   0  0  0  0  0  0
    2.3805   -1.8785   -1.0136 H   0  0  0  0  0  0
    1.1180   -1.8698   -1.9250 H   0  0  0  0  0  0
    0.1776   -0.1730   -0.1690 Ar  0  0  0  0  0  0
  1  2  1  0  0  0
  1  3  1  0  0  0
M  END
$$$$
