


  4  2  0  0  1  0            999 V2000
   -1.8118   -3.1167    1.1487 O   0  0  0  0  0  0
   -1.2833   -3.2825    0.3354 H   0  0  0  0  0  0
   -2.3586   -2.3277    0.9327 H   0  0  0  0  0  0
    0.2477    0.4113   -0.1396 Ar  0  0  0  0  0  0
  1  2  1  0  0  0
  1  3  1  0  0  0
M  END
$$$$
