


  4  2  0  0  1  0            999 V2000
   -1.7107    3.1676    1.4852 O   0  0  0  0  0  0
   -1.2524    2.3982    1.0775 H   0  0  0  0  0  0
   -1.8540    2.9030    2.4221 H   0  0  0  0  0  0
    0.6558   -1.2175   -0.5810 Ar  0  0  0  0  0  0
  1  2  1  0  0  0
  1  3  1  0  0  0
M  END
$$$$
