


  4  2  0  0  1  0            999 V2000
    2.9046    4.6227    0.2857 O   0  0  0  0  0  0
    3.8539    4.8521    0.1649 H   0  0  0  0  0  0
    2.4404    5.0977   -0.4403 H   0  0  0  0  0  0
    0.0000    0.0000    0.0000 Ar  0  0  0  0  0  0
  1  2  1  0  0  0
  1  3  1  0  0  0
M  END
$$$$
