


  4  2  0  0  1  0            999 V2000
   -0.4400   -2.6166    3.7198 O   0  0  0  0  0  0
   -1.2261   -2.6031    3.1282 H   0  0  0  0  0  0
   -0.8135   -2.6927    4.6270 H   0  0  0  0  0  0
    0.0000    0.0000    0.0000 Ar  0  0  0  0  0  0
  1  2  1  0  0  0
  1  3  1  0  0  0
M  END
$$$$
