


  4  2  0  0  1  0            999 V2000
    1.1411   -1.4096    2.8461 O   0  0  0  0  0  0
    1.0931   -0.5562    2.3586 H   0  0  0  0  0  0
    0.3279   -1.4250    3.3999 H   0  0  0  0  0  0
   -0.6925    0.7383   -1.7249 Ar  0  0  0  0  0  0
  1  2  1  0  0  0
  1  3  1  0  0  0
M  END
$$$$
