


  4  2  0  0  1  0            999 V2000
   -3.1630   -0.4354   -0.0178 O   0  0  0  0  0  0
   -4.0068   -0.5407   -0.5131 H   0  0  0  0  0  0
   -2.5649   -1.1173   -0.3992 H   0  0  0  0  0  0
    1.0822    0.1943    0.0322 Xe  0  0  0  0  0  0
  1  2  1  0  0  0
  1  3  1  0  0  0
M  END
$$$$
