


  4  2  0  0  1  0            999 V2000
    1.8126   -1.5516    1.6732 O   0  0  0  0  0  0
    2.6623   -1.6973    1.1989 H   0  0  0  0  0  0
    1.5079   -2.4544    1.9191 H   0  0  0  0  0  0
   -0.6239    0.5395   -0.5654 Xe  0  0  0  0  0  0
  1  2  1  0  0  0
  1  3  1  0  0  0
M  END
$$$$
