


 12 10  0  0  1  0            999 V2000
    0.0000    0.0000    0.0000 C   0  0  0  0  0  0
   -0.3613   -0.6352    1.2816 C   0  0  0  0  0  0
   -1.8055   -1.1217    1.3056 C   0  0  0  0  0  0
   -2.8711   -1.5396    1.2736 N   0  0  0  0  0  0
    1.0413    0.3615    0.0390 H   0  0  0  0  0  0
   -0.6676    0.8655   -0.1477 H   0  0  0  0  0  0
   -0.1052   -0.6770   -0.8644 H   0  0  0  0  0  0
   -0.1604   -0.0097    2.1725 H   0  0  0  0  0  0
    0.3325   -1.4973    1.3123 H   0  0  0  0  0  0
   -0.5392   -3.9136   -0.3424 O   0  0  0  0  0  0
    0.4360   -3.7833   -0.3621 H   0  0  0  0  0  0
   -0.6620   -4.8090    0.0465 H   0  0  0  0  0  0
  1  2  1  0  0  0
  2  3  1  0  0  0
  3  4  3  0  0  0
  1  5  1  0  0  0
  1  6  1  0  0  0
  1  7  1  0  0  0
  2  8  1  0  0  0
  2  9  1  0  0  0
 10 11  1  0  0  0
 10 12  1  0  0  0
M  END
$$$$
