


 25 25  0  0  1  0            999 V2000
    3.1866   -0.2089    0.7041 C   0  0  0  0  0  0
    2.0900   -0.9200    1.4916 C   0  0  0  0  0  0
    1.6371    0.0692    2.5611 C   0  0  0  0  0  0
    2.9110    0.5497    3.2501 C   0  0  0  0  0  0
    4.1641    0.7310    1.9308 S   0  0  0  0  0  0
    2.7569    0.4888   -0.0402 H   0  0  0  0  0  0
    3.8544   -0.9075    0.1643 H   0  0  0  0  0  0
    1.2620   -1.2395    0.8299 H   0  0  0  0  0  0
    2.5038   -1.8262    1.9744 H   0  0  0  0  0  0
    0.9328   -0.3816    3.2865 H   0  0  0  0  0  0
    1.1248    0.9258    2.0824 H   0  0  0  0  0  0
    3.2641   -0.1865    3.9976 H   0  0  0  0  0  0
    2.7837    1.5200    3.7675 H   0  0  0  0  0  0
   -1.3633    3.8213    0.4125 C   0  0  0  0  0  0
   -0.1730    3.8194   -0.3156 C   0  0  0  0  0  0
    1.0050    4.2824    0.2719 C   0  0  0  0  0  0
    0.9926    4.7473    1.5875 C   0  0  0  0  0  0
   -0.1978    4.7492    2.3156 C   0  0  0  0  0  0
   -1.3757    4.2862    1.7281 C   0  0  0  0  0  0
   -2.2903    3.4570   -0.0498 H   0  0  0  0  0  0
   -0.1632    3.4536   -1.3508 H   0  0  0  0  0  0
    1.9416    4.2809   -0.3011 H   0  0  0  0  0  0
    1.9195    5.1116    2.0497 H   0  0  0  0  0  0
   -0.2075    5.1150    3.3508 H   0  0  0  0  0  0
   -2.3124    4.2877    2.3011 H   0  0  0  0  0  0
  1  2  1  0  0  0
  2  3  1  0  0  0
  3  4  1  0  0  0
  4  5  1  0  0  0
  1  5  1  0  0  0
  1  6  1  0  0  0
  1  7  1  0  0  0
  2  8  1  0  0  0
  2  9  1  0  0  0
  3 10  1  0  0  0
  3 11  1  0  0  0
  4 12  1  0  0  0
  4 13  1  0  0  0
 14 15  1  0  0  0
 15 16  2  0  0  0
 16 17  1  0  0  0
 17 18  2  0  0  0
 18 19  1  0  0  0
 14 19  2  0  0  0
 14 20  1  0  0  0
 15 21  1  0  0  0
 16 22  1  0  0  0
 17 23  1  0  0  0
 18 24  1  0  0  0
 19 25  1  0  0  0
M  END
$$$$
