


 24 22  0  0  1  0            999 V2000
   11.5370    8.7633   -6.7968 O   0  0  0  0  0  0
   12.7554    8.7976   -6.7020 C   0  0  0  0  0  0
   13.4870    7.9009   -5.9660 N   0  0  0  0  0  0
   14.9226    8.0171   -6.1598 C   0  0  0  0  0  0
   13.0613    6.8725   -4.9561 C   0  0  0  0  0  0
   13.3670    9.6538   -7.0770 H   0  0  0  0  0  0
   15.3170    9.0369   -6.0146 H   0  0  0  0  0  0
   15.0910    7.7208   -7.2088 H   0  0  0  0  0  0
   15.4816    7.3273   -5.5053 H   0  0  0  0  0  0
   13.7931    6.6425   -4.1635 H   0  0  0  0  0  0
   12.8035    5.9363   -5.4793 H   0  0  0  0  0  0
   12.1486    7.2757   -4.4860 H   0  0  0  0  0  0
    7.8015    6.6609   -0.3321 O   0  0  0  0  0  0
    8.4549    5.9135    0.3526 C   0  0  0  0  0  0
    9.7661    5.8729    0.3498 N   0  0  0  0  0  0
   10.4571    5.2363    1.4328 C   0  0  0  0  0  0
   10.5800    6.5758   -0.6994 C   0  0  0  0  0  0
    8.0495    5.1172    1.0228 H   0  0  0  0  0  0
   11.5114    5.1033    1.1373 H   0  0  0  0  0  0
   10.0206    4.2439    1.6356 H   0  0  0  0  0  0
   10.4242    5.8315    2.3608 H   0  0  0  0  0  0
   11.2629    5.7922   -1.0683 H   0  0  0  0  0  0
   11.1794    7.3670   -0.2185 H   0  0  0  0  0  0
   10.0474    7.0124   -1.5609 H   0  0  0  0  0  0
  1  2  2  0  0  0
  2  3  1  0  0  0
  3  4  1  0  0  0
  3  5  1  0  0  0
  2  6  1  0  0  0
  4  7  1  0  0  0
  4  8  1  0  0  0
  4  9  1  0  0  0
  5 10  1  0  0  0
  5 11  1  0  0  0
  5 12  1  0  0  0
 13 14  2  0  0  0
 14 15  1  0  0  0
 15 16  1  0  0  0
 15 17  1  0  0  0
 14 18  1  0  0  0
 16 19  1  0  0  0
 16 20  1  0  0  0
 16 21  1  0  0  0
 17 22  1  0  0  0
 17 23  1  0  0  0
 17 24  1  0  0  0
M  END
$$$$
