


 24 22  0  0  1  0            999 V2000
    3.4770   -4.7135   -1.2160 O   0  0  0  0  0  0
    3.1207   -3.5866   -1.5717 C   0  0  0  0  0  0
    3.0294   -3.1926   -2.8180 N   0  0  0  0  0  0
    2.8144   -1.7790   -3.1632 C   0  0  0  0  0  0
    3.2947   -3.9850   -3.9655 C   0  0  0  0  0  0
    2.9121   -2.7064   -0.9164 H   0  0  0  0  0  0
    2.4890   -1.7640   -4.2170 H   0  0  0  0  0  0
    3.5965   -1.0136   -3.0255 H   0  0  0  0  0  0
    1.9527   -1.5203   -2.5252 H   0  0  0  0  0  0
    3.9469   -3.4225   -4.6546 H   0  0  0  0  0  0
    2.3919   -4.3010   -4.5148 H   0  0  0  0  0  0
    3.8340   -4.8857   -3.6272 H   0  0  0  0  0  0
   -2.0973   -3.4343    1.0393 O   0  0  0  0  0  0
   -1.3365   -4.1357    1.7468 C   0  0  0  0  0  0
   -1.2413   -5.4519    1.6114 N   0  0  0  0  0  0
   -0.4096   -6.2222    2.5299 C   0  0  0  0  0  0
   -2.0177   -6.1090    0.5220 C   0  0  0  0  0  0
   -0.7296   -3.7425    2.5981 H   0  0  0  0  0  0
   -0.3445   -7.2519    2.1400 H   0  0  0  0  0  0
   -0.8949   -6.2510    3.5200 H   0  0  0  0  0  0
    0.6128   -5.8264    2.6507 H   0  0  0  0  0  0
   -1.6993   -7.1237    0.2292 H   0  0  0  0  0  0
   -2.1214   -5.4962   -0.3892 H   0  0  0  0  0  0
   -3.0026   -6.1776    1.0138 H   0  0  0  0  0  0
  1  2  2  0  0  0
  2  3  1  0  0  0
  3  4  1  0  0  0
  3  5  1  0  0  0
  2  6  1  0  0  0
  4  7  1  0  0  0
  4  8  1  0  0  0
  4  9  1  0  0  0
  5 10  1  0  0  0
  5 11  1  0  0  0
  5 12  1  0  0  0
 13 14  2  0  0  0
 14 15  1  0  0  0
 15 16  1  0  0  0
 15 17  1  0  0  0
 14 18  1  0  0  0
 16 19  1  0  0  0
 16 20  1  0  0  0
 16 21  1  0  0  0
 17 22  1  0  0  0
 17 23  1  0  0  0
 17 24  1  0  0  0
M  END
$$$$
