


 24 22  0  0  1  0            999 V2000
   -2.9421   -2.8463   -3.7220 O   0  0  0  0  0  0
   -3.4869   -1.9098   -4.2995 C   0  0  0  0  0  0
   -4.3186   -1.1367   -3.6530 N   0  0  0  0  0  0
   -4.7511    0.0875   -4.2429 C   0  0  0  0  0  0
   -4.7923   -1.4694   -2.2611 C   0  0  0  0  0  0
   -3.4412   -1.6614   -5.3876 H   0  0  0  0  0  0
   -3.9328    0.8066   -4.0700 H   0  0  0  0  0  0
   -5.6699    0.4812   -3.7766 H   0  0  0  0  0  0
   -4.9181   -0.0009   -5.3296 H   0  0  0  0  0  0
   -5.4549   -2.3509   -2.2831 H   0  0  0  0  0  0
   -5.3205   -0.6448   -1.7535 H   0  0  0  0  0  0
   -3.8907   -1.7215   -1.6778 H   0  0  0  0  0  0
   -5.9839   -2.6196   -6.0573 O   0  0  0  0  0  0
   -5.1933   -2.3082   -6.9331 C   0  0  0  0  0  0
   -5.5243   -1.9748   -8.2137 N   0  0  0  0  0  0
   -4.5189   -1.5473   -9.1933 C   0  0  0  0  0  0
   -6.8641   -2.0529   -8.8023 C   0  0  0  0  0  0
   -4.0870   -2.2224   -6.8044 H   0  0  0  0  0  0
   -4.5903   -2.0732  -10.1603 H   0  0  0  0  0  0
   -3.5643   -1.8214   -8.7135 H   0  0  0  0  0  0
   -4.5181   -0.4607   -9.3830 H   0  0  0  0  0  0
   -7.3045   -1.0523   -8.9482 H   0  0  0  0  0  0
   -7.4965   -2.6160   -8.0954 H   0  0  0  0  0  0
   -6.8626   -2.5812   -9.7706 H   0  0  0  0  0  0
  1  2  2  0  0  0
  2  3  1  0  0  0
  3  4  1  0  0  0
  3  5  1  0  0  0
  2  6  1  0  0  0
  4  7  1  0  0  0
  4  8  1  0  0  0
  4  9  1  0  0  0
  5 10  1  0  0  0
  5 11  1  0  0  0
  5 12  1  0  0  0
 13 14  2  0  0  0
 14 15  1  0  0  0
 15 16  1  0  0  0
 15 17  1  0  0  0
 14 18  1  0  0  0
 16 19  1  0  0  0
 16 20  1  0  0  0
 16 21  1  0  0  0
 17 22  1  0  0  0
 17 23  1  0  0  0
 17 24  1  0  0  0
M  END
$$$$
