


 24 22  0  0  1  0            999 V2000
   -1.2311   -8.4872    0.2258 O   0  0  0  0  0  0
   -0.8330   -7.4083   -0.1106 C   0  0  0  0  0  0
    0.2907   -7.1876   -0.8647 N   0  0  0  0  0  0
    1.3031   -8.2974   -1.0819 C   0  0  0  0  0  0
    0.3100   -5.9294   -1.6080 C   0  0  0  0  0  0
   -1.0634   -6.5181    0.5235 H   0  0  0  0  0  0
    2.2514   -8.0609   -0.5706 H   0  0  0  0  0  0
    1.5027   -8.4050   -2.1613 H   0  0  0  0  0  0
    0.9259   -9.2595   -0.6962 H   0  0  0  0  0  0
    1.0199   -5.2134   -1.1607 H   0  0  0  0  0  0
   -0.6830   -5.4524   -1.6631 H   0  0  0  0  0  0
    0.6451   -6.1636   -2.6324 H   0  0  0  0  0  0
    4.6767    2.0242   -4.1136 O   0  0  0  0  0  0
    4.7715    1.1475   -3.2691 C   0  0  0  0  0  0
    3.9880    0.0401   -3.1738 N   0  0  0  0  0  0
    3.9541   -0.8619   -2.0467 C   0  0  0  0  0  0
    2.9449   -0.2522   -4.1299 C   0  0  0  0  0  0
    5.5411    1.0766   -2.4627 H   0  0  0  0  0  0
    3.2861   -0.3904   -1.3064 H   0  0  0  0  0  0
    4.9673   -0.9264   -1.6157 H   0  0  0  0  0  0
    3.5913   -1.8841   -2.2472 H   0  0  0  0  0  0
    2.1490   -0.8316   -3.6324 H   0  0  0  0  0  0
    3.4407   -0.9005   -4.8719 H   0  0  0  0  0  0
    2.4828    0.5983   -4.6588 H   0  0  0  0  0  0
  1  2  2  0  0  0
  2  3  1  0  0  0
  3  4  1  0  0  0
  3  5  1  0  0  0
  2  6  1  0  0  0
  4  7  1  0  0  0
  4  8  1  0  0  0
  4  9  1  0  0  0
  5 10  1  0  0  0
  5 11  1  0  0  0
  5 12  1  0  0  0
 13 14  2  0  0  0
 14 15  1  0  0  0
 15 16  1  0  0  0
 15 17  1  0  0  0
 14 18  1  0  0  0
 16 19  1  0  0  0
 16 20  1  0  0  0
 16 21  1  0  0  0
 17 22  1  0  0  0
 17 23  1  0  0  0
 17 24  1  0  0  0
M  END
$$$$
