


 20 18  0  0  1  0            999 V2000
    2.0092    4.4937    1.3567 C   0  0  0  0  0  0
    0.8805    3.3086    0.6032 S   0  0  0  0  0  0
   -0.5924    3.6068    1.6148 C   0  0  0  0  0  0
   -0.4667    3.1434    3.0615 C   0  0  0  0  0  0
    2.9350    4.4933    0.7571 H   0  0  0  0  0  0
    2.2639    4.2315    2.3974 H   0  0  0  0  0  0
    1.5826    5.5108    1.3445 H   0  0  0  0  0  0
   -0.8374    4.6850    1.5617 H   0  0  0  0  0  0
   -1.4009    3.0523    1.1007 H   0  0  0  0  0  0
    0.3385    3.6891    3.5814 H   0  0  0  0  0  0
   -1.4145    3.3207    3.5971 H   0  0  0  0  0  0
   -0.2397    2.0645    3.0960 H   0  0  0  0  0  0
    2.3649   -0.1000   -0.1405 C   0  0  0  0  0  0
    1.9880    0.3979    1.2197 N   0  0  0  0  0  0
    2.8158    0.4057    1.8492 H   0  0  0  0  0  0
    1.6110    1.3656    1.1640 H   0  0  0  0  0  0
    1.2605   -0.2120    1.6444 H   0  0  0  0  0  0
    3.1365    0.5501   -0.5863 H   0  0  0  0  0  0
    1.4839   -0.1064   -0.8040 H   0  0  0  0  0  0
    2.7641   -1.1263   -0.0758 H   0  0  0  0  0  0
  1  2  1  0  0  0
  2  3  1  0  0  0
  3  4  1  0  0  0
  1  5  1  0  0  0
  1  6  1  0  0  0
  1  7  1  0  0  0
  3  8  1  0  0  0
  3  9  1  0  0  0
  4 10  1  0  0  0
  4 11  1  0  0  0
  4 12  1  0  0  0
 13 14  1  0  0  0
 14 15  1  0  0  0
 14 16  1  0  0  0
 14 17  1  0  0  0
 13 18  1  0  0  0
 13 19  1  0  0  0
 13 20  1  0  0  0
M  CHG  1  14   1
M  END
$$$$
