


 22 21  0  0  1  0            999 V2000
    0.5203   -0.4074    0.8068 C   0  0  0  0  0  0
    1.8707   -0.5013    1.4997 C   0  0  0  0  0  0
    2.9209    0.0097    0.6098 N   0  0  0  0  0  0
    0.3162    0.6377    0.5189 H   0  0  0  0  0  0
   -0.2860   -0.7518    1.4760 H   0  0  0  0  0  0
    0.5128   -1.0308   -0.1030 H   0  0  0  0  0  0
    1.8667    0.1366    2.4045 H   0  0  0  0  0  0
    2.0431   -1.5454    1.8248 H   0  0  0  0  0  0
    3.8371   -0.0517    1.0673 H   0  0  0  0  0  0
    2.9804   -0.5815   -0.2266 H   0  0  0  0  0  0
    0.2411    5.2327   -0.6447 C   0  0  0  0  0  0
    1.0974    4.1800   -0.0217 C   0  0  0  0  0  0
    1.3193    2.8864   -0.4495 C   0  0  0  0  0  0
    2.1799    2.3367    0.4699 N   0  0  0  0  0  0
    2.5531    1.3843    0.4565 H   0  0  0  0  0  0
    2.4461    3.2918    1.4038 C   0  0  0  0  0  0
    1.8066    4.4189    1.1353 N   0  0  0  0  0  0
   -0.2398    4.8461   -1.5590 H   0  0  0  0  0  0
    0.8504    6.1122   -0.9126 H   0  0  0  0  0  0
   -0.5461    5.5513    0.0591 H   0  0  0  0  0  0
    0.9480    2.3253   -1.3070 H   0  0  0  0  0  0
    3.1074    3.1146    2.2520 H   0  0  0  0  0  0
  1  2  1  0  0  0
  2  3  1  0  0  0
  1  4  1  0  0  0
  1  5  1  0  0  0
  1  6  1  0  0  0
  2  7  1  0  0  0
  2  8  1  0  0  0
  3  9  1  0  0  0
  3 10  1  0  0  0
 11 12  1  0  0  0
 12 13  2  0  0  0
 13 14  1  0  0  0
 14 15  1  0  0  0
 14 16  1  0  0  0
 16 17  2  0  0  0
 12 17  1  0  0  0
 11 18  1  0  0  0
 11 19  1  0  0  0
 11 20  1  0  0  0
 13 21  1  0  0  0
 16 22  1  0  0  0
M  END
$$$$
