


 24 23  0  0  1  0            999 V2000
    3.0971    4.5150    0.7372 C   0  0  0  0  0  0
    4.3585    3.7399    1.1335 C   0  0  0  0  0  0
    4.1712    2.2257    1.1961 C   0  0  0  0  0  0
    3.7836    1.5112   -0.4252 S   0  0  0  0  0  0
    1.9846    2.4430   -0.7447 S   0  0  0  0  0  0
    2.5521    4.1626   -0.6451 C   0  0  0  0  0  0
    3.3303    5.5970    0.7537 H   0  0  0  0  0  0
    2.3024    4.3305    1.4854 H   0  0  0  0  0  0
    5.1687    3.9639    0.4132 H   0  0  0  0  0  0
    4.6878    4.0912    2.1303 H   0  0  0  0  0  0
    3.3726    1.9410    1.9079 H   0  0  0  0  0  0
    5.1049    1.7276    1.5210 H   0  0  0  0  0  0
    1.6649    4.7792   -0.8862 H   0  0  0  0  0  0
    3.3057    4.3327   -1.4379 H   0  0  0  0  0  0
   -0.1055   -0.5658    1.4495 C   0  0  0  0  0  0
    1.0934   -0.0131    2.2213 C   0  0  0  0  0  0
    0.9570    1.3681    2.6867 N   0  0  0  0  0  0
   -1.0081   -0.5431    2.0831 H   0  0  0  0  0  0
    0.0784   -1.6073    1.1364 H   0  0  0  0  0  0
   -0.2919    0.0443    0.5497 H   0  0  0  0  0  0
    1.2803   -0.6448    3.1110 H   0  0  0  0  0  0
    1.9951   -0.0586    1.5808 H   0  0  0  0  0  0
    0.1324    1.4517    3.2915 H   0  0  0  0  0  0
    0.7881    1.9894    1.8879 H   0  0  0  0  0  0
  1  2  1  0  0  0
  2  3  1  0  0  0
  3  4  1  0  0  0
  4  5  1  0  0  0
  5  6  1  0  0  0
  1  6  1  0  0  0
  1  7  1  0  0  0
  1  8  1  0  0  0
  2  9  1  0  0  0
  2 10  1  0  0  0
  3 11  1  0  0  0
  3 12  1  0  0  0
  6 13  1  0  0  0
  6 14  1  0  0  0
 15 16  1  0  0  0
 16 17  1  0  0  0
 15 18  1  0  0  0
 15 19  1  0  0  0
 15 20  1  0  0  0
 16 21  1  0  0  0
 16 22  1  0  0  0
 17 23  1  0  0  0
 17 24  1  0  0  0
M  END
$$$$
