


 20 18  0  0  1  0            999 V2000
    1.1671    3.5319    2.1934 C   0  0  0  0  0  0
   -0.0915    2.6800    2.2462 C   0  0  0  0  0  0
    0.2535    1.2716    2.0151 N   0  0  0  0  0  0
    1.8938    3.1779    2.9438 H   0  0  0  0  0  0
    0.9315    4.5889    2.4031 H   0  0  0  0  0  0
    1.6320    3.4664    1.1953 H   0  0  0  0  0  0
   -0.5409    2.7476    3.2556 H   0  0  0  0  0  0
   -0.8302    3.0737    1.5218 H   0  0  0  0  0  0
   -0.5898    0.6881    2.0463 H   0  0  0  0  0  0
    0.6400    1.1629    1.0710 H   0  0  0  0  0  0
    2.6073   -1.6130   -0.8448 C   0  0  0  0  0  0
    2.8003   -0.2113   -1.2041 N   0  0  0  0  0  0
    4.0007    0.3366   -0.5800 C   0  0  0  0  0  0
    2.3967   -1.6693    0.2364 H   0  0  0  0  0  0
    3.4857   -2.2426   -1.0654 H   0  0  0  0  0  0
    1.7393   -2.0153   -1.3938 H   0  0  0  0  0  0
    2.8942   -0.1397   -2.2253 H   0  0  0  0  0  0
    4.9088   -0.2514   -0.7949 H   0  0  0  0  0  0
    4.1584    1.3693   -0.9339 H   0  0  0  0  0  0
    3.8462    0.3587    0.5119 H   0  0  0  0  0  0
  1  2  1  0  0  0
  2  3  1  0  0  0
  1  4  1  0  0  0
  1  5  1  0  0  0
  1  6  1  0  0  0
  2  7  1  0  0  0
  2  8  1  0  0  0
  3  9  1  0  0  0
  3 10  1  0  0  0
 11 12  1  0  0  0
 12 13  1  0  0  0
 11 14  1  0  0  0
 11 15  1  0  0  0
 11 16  1  0  0  0
 12 17  1  0  0  0
 13 18  1  0  0  0
 13 19  1  0  0  0
 13 20  1  0  0  0
M  END
$$$$
