


 20 20  0  0  1  0            999 V2000
   -0.6279    1.9564    3.6051 C   0  0  0  0  0  0
   -1.2646    3.2159    3.7326 O   0  0  0  0  0  0
   -0.2340    4.1975    3.6343 C   0  0  0  0  0  0
    0.9520    3.4710    4.2289 C   0  0  0  0  0  0
    0.7707    2.1466    3.7302 O   0  0  0  0  0  0
   -0.8300    1.4872    2.6230 H   0  0  0  0  0  0
   -1.0264    1.2829    4.3882 H   0  0  0  0  0  0
   -0.5557    5.1025    4.1848 H   0  0  0  0  0  0
   -0.0544    4.4899    2.5818 H   0  0  0  0  0  0
    0.9365    3.4909    5.3356 H   0  0  0  0  0  0
    1.9427    3.8390    3.8995 H   0  0  0  0  0  0
    0.9284    2.8993   -0.4616 C   0  0  0  0  0  0
    1.4809    3.0865   -1.6497 N   0  0  0  0  0  0
    2.7888    2.6898   -1.5048 C   0  0  0  0  0  0
    3.0287    2.2592   -0.2179 C   0  0  0  0  0  0
    1.8284    2.4007    0.4329 N   0  0  0  0  0  0
    1.6424    2.1730    1.4128 H   0  0  0  0  0  0
   -0.1084    3.1058   -0.1961 H   0  0  0  0  0  0
    3.4931    2.7343   -2.3355 H   0  0  0  0  0  0
    3.9196    1.8758    0.2794 H   0  0  0  0  0  0
  1  2  1  0  0  0
  2  3  1  0  0  0
  3  4  1  0  0  0
  4  5  1  0  0  0
  1  5  1  0  0  0
  1  6  1  0  0  0
  1  7  1  0  0  0
  3  8  1  0  0  0
  3  9  1  0  0  0
  4 10  1  0  0  0
  4 11  1  0  0  0
 12 13  2  0  0  0
 13 14  1  0  0  0
 14 15  2  0  0  0
 15 16  1  0  0  0
 16 17  1  0  0  0
 12 16  1  0  0  0
 12 18  1  0  0  0
 14 19  1  0  0  0
 15 20  1  0  0  0
M  END
$$$$
