


  9  7  0  0  1  0            999 V2000
    0.0000    0.0000    0.0000 C   0  0  0  0  0  0
    0.8098    1.1813    0.2230 C   0  0  0  0  0  0
    1.4708    2.1110    0.4210 N   0  0  0  0  0  0
    0.1457   -0.2921   -1.0536 H   0  0  0  0  0  0
   -1.0600    0.2669    0.1478 H   0  0  0  0  0  0
    0.2375   -0.8656    0.6411 H   0  0  0  0  0  0
   -2.4049   -1.9705   -0.8197 O   0  0  0  0  0  0
   -1.6470   -2.2464   -0.2560 H   0  0  0  0  0  0
   -2.3850   -0.9869   -0.7979 H   0  0  0  0  0  0
  1  2  1  0  0  0
  2  3  3  0  0  0
  1  4  1  0  0  0
  1  5  1  0  0  0
  1  6  1  0  0  0
  7  8  1  0  0  0
  7  9  1  0  0  0
M  END
$$$$
