


  8  6  0  0  1  0            999 V2000
   -9.8561   -4.0237    9.5726 C   0  0  0  0  0  0
   -9.7931   -4.2333   10.7640 O   0  0  0  0  0  0
  -10.8217   -3.7610    9.0786 H   0  0  0  0  0  0
   -8.9499   -4.0544    8.9219 H   0  0  0  0  0  0
   -7.9159   -3.0712    5.7950 C   0  0  0  0  0  0
   -7.4073   -3.8132    6.6536 O   0  0  0  0  0  0
   -8.7419   -2.3987    6.1283 H   0  0  0  0  0  0
   -7.6210   -3.0114    4.7204 H   0  0  0  0  0  0
  1  2  2  0  0  0
  1  3  1  0  0  0
  1  4  1  0  0  0
  5  6  2  0  0  0
  5  7  1  0  0  0
  5  8  1  0  0  0
M  END
$$$$
