


  8  6  0  0  1  0            999 V2000
    3.2883    4.1059    3.8940 C   0  0  0  0  0  0
    3.0329    3.1160    4.6476 O   0  0  0  0  0  0
    3.3150    3.8772    2.8021 H   0  0  0  0  0  0
    3.5798    5.1392    4.1990 H   0  0  0  0  0  0
    6.3184    5.1252    4.4700 C   0  0  0  0  0  0
    6.9714    5.4940    5.4340 O   0  0  0  0  0  0
    6.4139    4.1326    3.9689 H   0  0  0  0  0  0
    5.4908    5.7876    4.1208 H   0  0  0  0  0  0
  1  2  2  0  0  0
  1  3  1  0  0  0
  1  4  1  0  0  0
  5  6  2  0  0  0
  5  7  1  0  0  0
  5  8  1  0  0  0
M  END
$$$$
