


  8  6  0  0  1  0            999 V2000
    0.7168   -0.0738    2.2542 C   0  0  0  0  0  0
    0.4363    0.6326    1.3096 O   0  0  0  0  0  0
   -0.0290   -0.7711    2.7047 H   0  0  0  0  0  0
    1.7331   -0.0578    2.7149 H   0  0  0  0  0  0
    3.6709    2.0288    1.2074 C   0  0  0  0  0  0
    3.9492    1.3279    2.1567 O   0  0  0  0  0  0
    2.6542    2.0138    0.7475 H   0  0  0  0  0  0
    4.4192    2.7201    0.7516 H   0  0  0  0  0  0
  1  2  2  0  0  0
  1  3  1  0  0  0
  1  4  1  0  0  0
  5  6  2  0  0  0
  5  7  1  0  0  0
  5  8  1  0  0  0
M  END
$$$$
