


  8  6  0  0  1  0            999 V2000
    3.7794    1.8926    2.4742 C   0  0  0  0  0  0
    4.4843    2.5878    1.7520 O   0  0  0  0  0  0
    2.6656    1.8873    2.4041 H   0  0  0  0  0  0
    4.2423    1.1677    3.1854 H   0  0  0  0  0  0
   -4.5647    0.9388    0.0146 C   0  0  0  0  0  0
   -4.5838   -0.1448    0.5605 O   0  0  0  0  0  0
   -3.6382    1.5563   -0.0620 H   0  0  0  0  0  0
   -5.4835    1.3480   -0.4688 H   0  0  0  0  0  0
  1  2  2  0  0  0
  1  3  1  0  0  0
  1  4  1  0  0  0
  5  6  2  0  0  0
  5  7  1  0  0  0
  5  8  1  0  0  0
M  END
$$$$
