


  8  6  0  0  1  0            999 V2000
   -9.5639    3.3691  -10.4319 C   0  0  0  0  0  0
  -10.3229    3.1517  -11.3302 O   0  0  0  0  0  0
   -9.8446    4.1110   -9.6468 H   0  0  0  0  0  0
   -8.5472    2.9155  -10.3551 H   0  0  0  0  0  0
   -7.1335    1.2198   -7.1550 C   0  0  0  0  0  0
   -7.1565    0.8530   -8.3714 O   0  0  0  0  0  0
   -6.5715    2.0800   -6.7194 H   0  0  0  0  0  0
   -7.7814    0.6372   -6.4577 H   0  0  0  0  0  0
  1  2  2  0  0  0
  1  3  1  0  0  0
  1  4  1  0  0  0
  5  6  2  0  0  0
  5  7  1  0  0  0
  5  8  1  0  0  0
M  END
$$$$
