


  8  6  0  0  1  0            999 V2000
   -9.5639    3.3691  -10.4319 C   0  0  0  0  0  0
  -10.3229    3.1517  -11.3302 O   0  0  0  0  0  0
   -9.8446    4.1110   -9.6468 H   0  0  0  0  0  0
   -8.5472    2.9155  -10.3551 H   0  0  0  0  0  0
   -7.5198    1.6292   -7.5711 C   0  0  0  0  0  0
   -7.5427    1.2624   -8.7875 O   0  0  0  0  0  0
   -6.9578    2.4894   -7.1355 H   0  0  0  0  0  0
   -8.1677    1.0466   -6.8738 H   0  0  0  0  0  0
  1  2  2  0  0  0
  1  3  1  0  0  0
  1  4  1  0  0  0
  5  6  2  0  0  0
  5  7  1  0  0  0
  5  8  1  0  0  0
M  END
$$$$
