


  8  6  0  0  1  0            999 V2000
    6.2592    2.8709  -12.7533 C   0  0  0  0  0  0
    6.4709    2.7619  -11.6024 O   0  0  0  0  0  0
    6.5971    3.7753  -13.3132 H   0  0  0  0  0  0
    5.6605    2.1210  -13.3230 H   0  0  0  0  0  0
    8.7759    6.0648  -11.4998 C   0  0  0  0  0  0
    8.8473    7.1646  -12.0767 O   0  0  0  0  0  0
    8.9768    5.9889  -10.4046 H   0  0  0  0  0  0
    8.5729    5.1104  -12.0414 H   0  0  0  0  0  0
  1  2  2  0  0  0
  1  3  1  0  0  0
  1  4  1  0  0  0
  5  6  2  0  0  0
  5  7  1  0  0  0
  5  8  1  0  0  0
M  END
$$$$
