


  8  6  0  0  1  0            999 V2000
    4.9314   -2.8447   -0.7330 C   0  0  0  0  0  0
    3.7477   -3.1076   -0.5003 O   0  0  0  0  0  0
    5.7189   -3.3030   -0.0886 H   0  0  0  0  0  0
    5.2809   -2.1828   -1.5608 H   0  0  0  0  0  0
    4.1545    3.9008    0.1963 C   0  0  0  0  0  0
    5.0811    3.2073    0.6672 O   0  0  0  0  0  0
    3.8665    4.8354    0.7340 H   0  0  0  0  0  0
    3.5553    3.6349   -0.7069 H   0  0  0  0  0  0
  1  2  2  0  0  0
  1  3  1  0  0  0
  1  4  1  0  0  0
  5  6  2  0  0  0
  5  7  1  0  0  0
  5  8  1  0  0  0
M  END
$$$$
