


  8  6  0  0  1  0            999 V2000
   -2.7963   -4.5418   -0.8098 C   0  0  0  0  0  0
   -3.7211   -4.0664   -0.1408 O   0  0  0  0  0  0
   -2.8323   -4.8299   -1.8874 H   0  0  0  0  0  0
   -1.8647   -4.7981   -0.2513 H   0  0  0  0  0  0
   -2.5968   -3.0095    6.6214 C   0  0  0  0  0  0
   -2.5110   -3.9635    7.3304 O   0  0  0  0  0  0
   -2.5868   -3.0862    5.5081 H   0  0  0  0  0  0
   -2.7242   -1.9889    7.0544 H   0  0  0  0  0  0
  1  2  2  0  0  0
  1  3  1  0  0  0
  1  4  1  0  0  0
  5  6  2  0  0  0
  5  7  1  0  0  0
  5  8  1  0  0  0
M  END
$$$$
