


  8  6  0  0  1  0            999 V2000
  -10.6205   -2.4733   -7.3588 C   0  0  0  0  0  0
  -10.4302   -3.2462   -6.4191 O   0  0  0  0  0  0
  -10.2406   -2.7190   -8.3790 H   0  0  0  0  0  0
  -11.0191   -1.4423   -7.2051 H   0  0  0  0  0  0
  -12.8420    0.5095   -5.4529 C   0  0  0  0  0  0
  -13.5520    0.6222   -4.4130 O   0  0  0  0  0  0
  -13.2028   -0.2579   -6.1783 H   0  0  0  0  0  0
  -11.8809    1.0212   -5.6982 H   0  0  0  0  0  0
  1  2  2  0  0  0
  1  3  1  0  0  0
  1  4  1  0  0  0
  5  6  2  0  0  0
  5  7  1  0  0  0
  5  8  1  0  0  0
M  END
$$$$
