


  8  6  0  0  1  0            999 V2000
   -1.7070    0.5093   -3.5113 C   0  0  0  0  0  0
   -1.5270    1.2349   -2.5219 O   0  0  0  0  0  0
   -0.9196    0.1231   -4.2015 H   0  0  0  0  0  0
   -2.7404    0.1132   -3.6549 H   0  0  0  0  0  0
    5.6809    0.4817   -1.8293 C   0  0  0  0  0  0
    5.0169    0.7167   -2.8582 O   0  0  0  0  0  0
    6.6725   -0.0303   -1.8305 H   0  0  0  0  0  0
    5.3146    0.8669   -0.8480 H   0  0  0  0  0  0
  1  2  2  0  0  0
  1  3  1  0  0  0
  1  4  1  0  0  0
  5  6  2  0  0  0
  5  7  1  0  0  0
  5  8  1  0  0  0
M  END
$$$$
