


  8  6  0  0  1  0            999 V2000
    1.2330    0.6294   -3.6368 C   0  0  0  0  0  0
    1.6740    1.7726   -3.5066 O   0  0  0  0  0  0
    1.8646   -0.1986   -3.2356 H   0  0  0  0  0  0
    0.3067    0.3352   -4.1853 H   0  0  0  0  0  0
    4.1230    2.7570    3.0973 C   0  0  0  0  0  0
    4.9970    1.8785    3.2179 O   0  0  0  0  0  0
    3.4056    2.6538    2.2487 H   0  0  0  0  0  0
    3.9101    3.5613    3.8412 H   0  0  0  0  0  0
  1  2  2  0  0  0
  1  3  1  0  0  0
  1  4  1  0  0  0
  5  6  2  0  0  0
  5  7  1  0  0  0
  5  8  1  0  0  0
M  END
$$$$
