


  8  6  0  0  1  0            999 V2000
   -0.2942   -3.7969    0.1549 C   0  0  0  0  0  0
   -0.6315   -4.9935    0.0493 O   0  0  0  0  0  0
   -1.0860   -3.0345   -0.0382 H   0  0  0  0  0  0
    0.6953   -3.4172    0.5044 H   0  0  0  0  0  0
    3.9667    2.0767    1.1638 C   0  0  0  0  0  0
    3.0747    2.9201    0.9809 O   0  0  0  0  0  0
    4.5067    1.4927    0.3810 H   0  0  0  0  0  0
    4.2389    1.8666    2.2255 H   0  0  0  0  0  0
  1  2  2  0  0  0
  1  3  1  0  0  0
  1  4  1  0  0  0
  5  6  2  0  0  0
  5  7  1  0  0  0
  5  8  1  0  0  0
M  END
$$$$
