


  8  6  0  0  1  0            999 V2000
   -3.2731    1.8555    1.2615 C   0  0  0  0  0  0
   -3.2113    1.0074    0.3992 O   0  0  0  0  0  0
   -3.2069    1.6454    2.3555 H   0  0  0  0  0  0
   -3.4765    2.9115    0.9633 H   0  0  0  0  0  0
   -5.3441    3.3497   -1.3383 C   0  0  0  0  0  0
   -6.3284    4.0412   -1.5460 O   0  0  0  0  0  0
   -5.0163    3.0863   -0.3045 H   0  0  0  0  0  0
   -4.6941    3.0019   -2.1762 H   0  0  0  0  0  0
  1  2  2  0  0  0
  1  3  1  0  0  0
  1  4  1  0  0  0
  5  6  2  0  0  0
  5  7  1  0  0  0
  5  8  1  0  0  0
M  END
$$$$
