


  8  6  0  0  1  0            999 V2000
   -4.5882    0.8399    0.5146 C   0  0  0  0  0  0
   -3.7004    0.0319    0.7833 O   0  0  0  0  0  0
   -5.1334    1.3636    1.3356 H   0  0  0  0  0  0
   -4.8446    1.1380   -0.5299 H   0  0  0  0  0  0
   -3.6833    4.7228   -0.4014 C   0  0  0  0  0  0
   -2.7132    5.2304    0.2235 O   0  0  0  0  0  0
   -4.6827    4.7957    0.0900 H   0  0  0  0  0  0
   -3.6589    4.2923   -1.4308 H   0  0  0  0  0  0
  1  2  2  0  0  0
  1  3  1  0  0  0
  1  4  1  0  0  0
  5  6  2  0  0  0
  5  7  1  0  0  0
  5  8  1  0  0  0
M  END
$$$$
