


  8  6  0  0  1  0            999 V2000
   -3.6535    4.1096  -12.6231 C   0  0  0  0  0  0
   -3.9365    5.3229  -12.7417 O   0  0  0  0  0  0
   -3.2744    3.7393  -11.6409 H   0  0  0  0  0  0
   -3.9133    3.3374  -13.3857 H   0  0  0  0  0  0
   -5.1453   -3.0873   -9.8155 C   0  0  0  0  0  0
   -5.6753   -4.1933   -9.8691 O   0  0  0  0  0  0
   -4.0591   -3.1072  -10.0712 H   0  0  0  0  0  0
   -5.5621   -2.1130   -9.4657 H   0  0  0  0  0  0
  1  2  2  0  0  0
  1  3  1  0  0  0
  1  4  1  0  0  0
  5  6  2  0  0  0
  5  7  1  0  0  0
  5  8  1  0  0  0
M  END
$$$$
