


  8  6  0  0  1  0            999 V2000
    0.0000    0.0000    0.0000 C   0  0  0  0  0  0
    1.1380   -0.2738   -0.3655 O   0  0  0  0  0  0
   -0.1643    0.0804    1.1009 H   0  0  0  0  0  0
   -0.8551    0.2842   -0.6585 H   0  0  0  0  0  0
    2.9732    1.5559    3.6944 C   0  0  0  0  0  0
    4.0539    1.3008    3.1956 O   0  0  0  0  0  0
    2.0370    1.0643    3.3375 H   0  0  0  0  0  0
    2.8757    2.2580    4.5563 H   0  0  0  0  0  0
  1  2  2  0  0  0
  1  3  1  0  0  0
  1  4  1  0  0  0
  5  6  2  0  0  0
  5  7  1  0  0  0
  5  8  1  0  0  0
M  END
$$$$
