


  8  6  0  0  1  0            999 V2000
    3.8944    1.1722   13.0330 C   0  0  0  0  0  0
    3.4630    0.1072   13.4242 O   0  0  0  0  0  0
    3.3749    2.1385   13.2375 H   0  0  0  0  0  0
    4.8518    1.2265   12.4623 H   0  0  0  0  0  0
    4.3679    4.8881   12.5982 C   0  0  0  0  0  0
    5.2764    4.0206   12.4331 O   0  0  0  0  0  0
    4.1675    5.7575   11.9277 H   0  0  0  0  0  0
    3.6516    4.7250   13.4382 H   0  0  0  0  0  0
  1  2  2  0  0  0
  1  3  1  0  0  0
  1  4  1  0  0  0
  5  6  2  0  0  0
  5  7  1  0  0  0
  5  8  1  0  0  0
M  END
$$$$
