


  8  6  0  0  1  0            999 V2000
  -14.6909    3.0071   -4.7167 C   0  0  0  0  0  0
  -14.0746    2.4261   -3.8214 O   0  0  0  0  0  0
  -15.4962    3.7529   -4.5151 H   0  0  0  0  0  0
  -14.6223    2.6095   -5.7572 H   0  0  0  0  0  0
  -11.4621    0.1725   -5.3066 C   0  0  0  0  0  0
  -12.3954    0.3149   -6.0537 O   0  0  0  0  0  0
  -10.5456   -0.3801   -5.6229 H   0  0  0  0  0  0
  -11.4640    0.5942   -4.2734 H   0  0  0  0  0  0
  1  2  2  0  0  0
  1  3  1  0  0  0
  1  4  1  0  0  0
  5  6  2  0  0  0
  5  7  1  0  0  0
  5  8  1  0  0  0
M  END
$$$$
