


  8  6  0  0  1  0            999 V2000
    0.0000    0.0000    0.0000 C   0  0  0  0  0  0
   -0.7525    0.2501    0.9875 O   0  0  0  0  0  0
    0.0200   -1.0589   -0.3517 H   0  0  0  0  0  0
    0.6113    0.7337   -0.5775 H   0  0  0  0  0  0
   -2.5956   -2.9697   -0.4918 C   0  0  0  0  0  0
   -1.9548   -2.5706   -1.4903 O   0  0  0  0  0  0
   -3.6933   -2.8505   -0.3295 H   0  0  0  0  0  0
   -2.0163   -3.4600    0.3264 H   0  0  0  0  0  0
  1  2  2  0  0  0
  1  3  1  0  0  0
  1  4  1  0  0  0
  5  6  2  0  0  0
  5  7  1  0  0  0
  5  8  1  0  0  0
M  END
$$$$
