


  8  6  0  0  1  0            999 V2000
    4.3306    1.0353   -1.4095 C   0  0  0  0  0  0
    3.9484   -0.0951   -1.1559 O   0  0  0  0  0  0
    3.5879    1.8603   -1.5244 H   0  0  0  0  0  0
    5.4090    1.3190   -1.4561 H   0  0  0  0  0  0
   -1.6602   -4.4893    3.3171 C   0  0  0  0  0  0
   -0.6082   -3.9505    3.6455 O   0  0  0  0  0  0
   -2.2510   -5.1818    3.9627 H   0  0  0  0  0  0
   -2.0979   -4.2314    2.3234 H   0  0  0  0  0  0
  1  2  2  0  0  0
  1  3  1  0  0  0
  1  4  1  0  0  0
  5  6  2  0  0  0
  5  7  1  0  0  0
  5  8  1  0  0  0
M  END
$$$$
