


  8  6  0  0  1  0            999 V2000
   -3.9633  -10.9449    1.7227 C   0  0  0  0  0  0
   -3.0272  -10.1970    1.8832 O   0  0  0  0  0  0
   -4.8836  -10.8243    2.3424 H   0  0  0  0  0  0
   -3.9237  -11.8331    1.0482 H   0  0  0  0  0  0
   -1.9971   -7.3523    0.8139 C   0  0  0  0  0  0
   -1.2810   -6.4616    1.2988 O   0  0  0  0  0  0
   -2.2431   -8.3121    1.3275 H   0  0  0  0  0  0
   -2.4188   -7.2065   -0.2090 H   0  0  0  0  0  0
  1  2  2  0  0  0
  1  3  1  0  0  0
  1  4  1  0  0  0
  5  6  2  0  0  0
  5  7  1  0  0  0
  5  8  1  0  0  0
M  END
$$$$
