


  8  6  0  0  1  0            999 V2000
   -1.9445   12.7405    4.0264 C   0  0  0  0  0  0
   -1.1102   11.8072    3.8742 O   0  0  0  0  0  0
   -2.1840   13.3788    3.1428 H   0  0  0  0  0  0
   -2.4828   12.9732    4.9759 H   0  0  0  0  0  0
   -3.4121   10.1170    3.4971 C   0  0  0  0  0  0
   -3.4620   10.7754    4.5019 O   0  0  0  0  0  0
   -4.3339   10.1639    2.8698 H   0  0  0  0  0  0
   -2.5758    9.4840    3.1159 H   0  0  0  0  0  0
  1  2  2  0  0  0
  1  3  1  0  0  0
  1  4  1  0  0  0
  5  6  2  0  0  0
  5  7  1  0  0  0
  5  8  1  0  0  0
M  END
$$$$
