


  8  6  0  0  1  0            999 V2000
   -0.6201   -4.2776   -1.2204 C   0  0  0  0  0  0
   -1.6656   -3.9470   -0.7720 O   0  0  0  0  0  0
   -0.5302   -4.9323   -2.1197 H   0  0  0  0  0  0
    0.3293   -3.9983   -0.7045 H   0  0  0  0  0  0
    1.6983   -3.3147   -5.1496 C   0  0  0  0  0  0
    1.7582   -3.2934   -6.3455 O   0  0  0  0  0  0
    2.2526   -4.0219   -4.4878 H   0  0  0  0  0  0
    1.1114   -2.5097   -4.6464 H   0  0  0  0  0  0
  1  2  2  0  0  0
  1  3  1  0  0  0
  1  4  1  0  0  0
  5  6  2  0  0  0
  5  7  1  0  0  0
  5  8  1  0  0  0
M  END
$$$$
