


  8  6  0  0  1  0            999 V2000
   -1.9445   12.7405    4.0264 C   0  0  0  0  0  0
   -1.1102   11.8072    3.8742 O   0  0  0  0  0  0
   -2.1840   13.3788    3.1428 H   0  0  0  0  0  0
   -2.4828   12.9732    4.9759 H   0  0  0  0  0  0
   -3.3421   10.1881    3.4913 C   0  0  0  0  0  0
   -3.3919   10.8466    4.4960 O   0  0  0  0  0  0
   -4.2639   10.2351    2.8640 H   0  0  0  0  0  0
   -2.5057    9.5552    3.1100 H   0  0  0  0  0  0
  1  2  2  0  0  0
  1  3  1  0  0  0
  1  4  1  0  0  0
  5  6  2  0  0  0
  5  7  1  0  0  0
  5  8  1  0  0  0
M  END
$$$$
