


  8  6  0  0  1  0            999 V2000
   -5.9383    1.9604   -0.2365 C   0  0  0  0  0  0
   -6.5673    1.0192    0.2535 O   0  0  0  0  0  0
   -6.3690    2.9890   -0.2830 H   0  0  0  0  0  0
   -4.8999    1.8317   -0.6244 H   0  0  0  0  0  0
    1.5883   -3.4963    5.8541 C   0  0  0  0  0  0
    2.4871   -4.1918    5.3903 O   0  0  0  0  0  0
    1.2212   -3.4570    6.9072 H   0  0  0  0  0  0
    1.0941   -2.8131    5.1231 H   0  0  0  0  0  0
  1  2  2  0  0  0
  1  3  1  0  0  0
  1  4  1  0  0  0
  5  6  2  0  0  0
  5  7  1  0  0  0
  5  8  1  0  0  0
M  END
$$$$
