


  8  6  0  0  1  0            999 V2000
   -0.1091   12.5744   -7.5868 C   0  0  0  0  0  0
   -0.4207   13.7370   -7.4055 O   0  0  0  0  0  0
   -0.1407   12.2018   -8.6383 H   0  0  0  0  0  0
    0.2900   11.8728   -6.8161 H   0  0  0  0  0  0
    1.5011   10.1823   -8.8838 C   0  0  0  0  0  0
    0.8039   10.7227   -9.7824 O   0  0  0  0  0  0
    2.5153   10.5211   -8.5644 H   0  0  0  0  0  0
    1.0942    9.2715   -8.3836 H   0  0  0  0  0  0
  1  2  2  0  0  0
  1  3  1  0  0  0
  1  4  1  0  0  0
  5  6  2  0  0  0
  5  7  1  0  0  0
  5  8  1  0  0  0
M  END
$$$$
