


  8  6  0  0  1  0            999 V2000
    1.6983   -3.3147   -5.1496 C   0  0  0  0  0  0
    1.7582   -3.2934   -6.3455 O   0  0  0  0  0  0
    2.2526   -4.0219   -4.4878 H   0  0  0  0  0  0
    1.1114   -2.5097   -4.6464 H   0  0  0  0  0  0
   -2.5307    5.7126   -2.0443 C   0  0  0  0  0  0
   -2.3946    5.2597   -0.9064 O   0  0  0  0  0  0
   -2.8550    6.7588   -2.2580 H   0  0  0  0  0  0
   -2.3391    5.0552   -2.9256 H   0  0  0  0  0  0
  1  2  2  0  0  0
  1  3  1  0  0  0
  1  4  1  0  0  0
  5  6  2  0  0  0
  5  7  1  0  0  0
  5  8  1  0  0  0
M  END
$$$$
