


  8  6  0  0  1  0            999 V2000
   -1.7323   -0.2560   -3.2876 C   0  0  0  0  0  0
   -1.8100   -0.1097   -4.5287 O   0  0  0  0  0  0
   -0.7423   -0.2336   -2.7730 H   0  0  0  0  0  0
   -2.6286   -0.4333   -2.6467 H   0  0  0  0  0  0
   -5.6741    1.6510   -1.9178 C   0  0  0  0  0  0
   -4.5656    1.3209   -2.2533 O   0  0  0  0  0  0
   -5.9364    2.1027   -0.9315 H   0  0  0  0  0  0
   -6.5055    1.5281   -2.6520 H   0  0  0  0  0  0
  1  2  2  0  0  0
  1  3  1  0  0  0
  1  4  1  0  0  0
  5  6  2  0  0  0
  5  7  1  0  0  0
  5  8  1  0  0  0
M  END
$$$$
