


  8  6  0  0  1  0            999 V2000
   -1.6392    2.9751   -5.7032 C   0  0  0  0  0  0
   -1.2382    3.7863   -6.5142 O   0  0  0  0  0  0
   -0.8641    2.4557   -5.0909 H   0  0  0  0  0  0
   -2.6866    2.6007   -5.6121 H   0  0  0  0  0  0
   -2.5307    5.7126   -2.0443 C   0  0  0  0  0  0
   -2.3946    5.2597   -0.9064 O   0  0  0  0  0  0
   -2.8550    6.7588   -2.2580 H   0  0  0  0  0  0
   -2.3391    5.0552   -2.9256 H   0  0  0  0  0  0
  1  2  2  0  0  0
  1  3  1  0  0  0
  1  4  1  0  0  0
  5  6  2  0  0  0
  5  7  1  0  0  0
  5  8  1  0  0  0
M  END
$$$$
