


  8  6  0  0  1  0            999 V2000
  -10.6714    2.7349    6.4942 C   0  0  0  0  0  0
   -9.7846    2.2266    5.8093 O   0  0  0  0  0  0
  -11.1711    3.6884    6.1998 H   0  0  0  0  0  0
  -10.9223    2.3255    7.5016 H   0  0  0  0  0  0
  -13.0484   -0.7286    7.9301 C   0  0  0  0  0  0
  -13.4907   -1.4610    8.8128 O   0  0  0  0  0  0
  -12.8073    0.3407    8.1396 H   0  0  0  0  0  0
  -12.8469   -1.0965    6.8959 H   0  0  0  0  0  0
  1  2  2  0  0  0
  1  3  1  0  0  0
  1  4  1  0  0  0
  5  6  2  0  0  0
  5  7  1  0  0  0
  5  8  1  0  0  0
M  END
$$$$
