


  8  6  0  0  1  0            999 V2000
   -7.5921  -12.5587   -1.2290 C   0  0  0  0  0  0
   -6.8291  -13.4719   -1.0737 O   0  0  0  0  0  0
   -7.7758  -11.8554   -0.3822 H   0  0  0  0  0  0
   -8.2649  -12.4667   -2.1146 H   0  0  0  0  0  0
   -8.8074   -8.4545   -2.9861 C   0  0  0  0  0  0
   -8.9227   -9.6644   -2.7548 O   0  0  0  0  0  0
   -9.7009   -7.8114   -3.1688 H   0  0  0  0  0  0
   -7.8123   -7.9494   -3.0010 H   0  0  0  0  0  0
  1  2  2  0  0  0
  1  3  1  0  0  0
  1  4  1  0  0  0
  5  6  2  0  0  0
  5  7  1  0  0  0
  5  8  1  0  0  0
M  END
$$$$
