


 24 22  0  0  1  0            999 V2000
   -9.0477    5.8408   -6.9482 C   0  0  0  0  0  0
  -10.4831    6.4026   -6.8180 C   0  0  0  0  0  0
  -11.1842    6.0651   -5.5683 N   0  0  0  0  0  0
  -12.3696    6.4848   -5.2819 C   0  0  0  0  0  0
  -12.8349    7.4800   -5.8986 O   0  0  0  0  0  0
   -8.6914    6.0165   -7.9771 H   0  0  0  0  0  0
   -8.9939    4.7595   -6.7371 H   0  0  0  0  0  0
   -8.3783    6.3695   -6.2489 H   0  0  0  0  0  0
  -10.4599    7.5072   -6.8878 H   0  0  0  0  0  0
  -11.1604    6.0294   -7.6101 H   0  0  0  0  0  0
  -10.7560    5.4231   -4.8968 H   0  0  0  0  0  0
  -12.8161    5.9970   -4.3817 H   0  0  0  0  0  0
  -14.9690   11.8486   -6.4711 C   0  0  0  0  0  0
  -13.5127   11.3571   -6.1961 C   0  0  0  0  0  0
  -13.2223   10.3064   -7.1535 N   0  0  0  0  0  0
  -12.5599   10.4689   -8.2907 C   0  0  0  0  0  0
  -12.1102   11.5398   -8.6964 O   0  0  0  0  0  0
  -15.0649   12.2449   -7.4960 H   0  0  0  0  0  0
  -15.1609   12.6678   -5.7578 H   0  0  0  0  0  0
  -15.7331   11.0671   -6.3232 H   0  0  0  0  0  0
  -12.7934   12.1957   -6.2648 H   0  0  0  0  0  0
  -13.4499   10.9430   -5.1714 H   0  0  0  0  0  0
  -13.2778    9.3480   -6.8002 H   0  0  0  0  0  0
  -12.2657    9.4885   -8.7379 H   0  0  0  0  0  0
  1  2  1  0  0  0
  2  3  1  0  0  0
  3  4  1  0  0  0
  4  5  2  0  0  0
  1  6  1  0  0  0
  1  7  1  0  0  0
  1  8  1  0  0  0
  2  9  1  0  0  0
  2 10  1  0  0  0
  3 11  1  0  0  0
  4 12  1  0  0  0
 13 14  1  0  0  0
 14 15  1  0  0  0
 15 16  1  0  0  0
 16 17  2  0  0  0
 13 18  1  0  0  0
 13 19  1  0  0  0
 13 20  1  0  0  0
 14 21  1  0  0  0
 14 22  1  0  0  0
 15 23  1  0  0  0
 16 24  1  0  0  0
M  END
$$$$
