


 24 22  0  0  1  0            999 V2000
   -3.4961   -7.2561   -8.1629 C   0  0  0  0  0  0
   -3.2192   -5.8194   -8.4880 C   0  0  0  0  0  0
   -2.0286   -5.3700   -7.9430 N   0  0  0  0  0  0
   -1.7752   -4.1019   -7.6708 C   0  0  0  0  0  0
   -2.5815   -3.1775   -7.9152 O   0  0  0  0  0  0
   -3.7780   -7.4134   -7.1082 H   0  0  0  0  0  0
   -2.5522   -7.7922   -8.3585 H   0  0  0  0  0  0
   -4.2837   -7.6845   -8.8054 H   0  0  0  0  0  0
   -3.0059   -5.6597   -9.5625 H   0  0  0  0  0  0
   -4.0079   -5.1015   -8.1912 H   0  0  0  0  0  0
   -1.3526   -6.0502   -7.5869 H   0  0  0  0  0  0
   -0.7943   -3.9909   -7.1483 H   0  0  0  0  0  0
    2.5990   -4.0645   -6.6322 C   0  0  0  0  0  0
    1.2517   -4.4501   -7.2210 C   0  0  0  0  0  0
    1.0086   -3.8209   -8.5226 N   0  0  0  0  0  0
    0.3529   -2.7042   -8.7111 C   0  0  0  0  0  0
   -0.1230   -2.0557   -7.7938 O   0  0  0  0  0  0
    2.8742   -3.0015   -6.5281 H   0  0  0  0  0  0
    3.3614   -4.5663   -7.2516 H   0  0  0  0  0  0
    2.5986   -4.5276   -5.6311 H   0  0  0  0  0  0
    1.1900   -5.5515   -7.3132 H   0  0  0  0  0  0
    0.4591   -4.1261   -6.5194 H   0  0  0  0  0  0
    1.2100   -4.3541   -9.3721 H   0  0  0  0  0  0
    0.1424   -2.5241   -9.7931 H   0  0  0  0  0  0
  1  2  1  0  0  0
  2  3  1  0  0  0
  3  4  1  0  0  0
  4  5  2  0  0  0
  1  6  1  0  0  0
  1  7  1  0  0  0
  1  8  1  0  0  0
  2  9  1  0  0  0
  2 10  1  0  0  0
  3 11  1  0  0  0
  4 12  1  0  0  0
 13 14  1  0  0  0
 14 15  1  0  0  0
 15 16  1  0  0  0
 16 17  2  0  0  0
 13 18  1  0  0  0
 13 19  1  0  0  0
 13 20  1  0  0  0
 14 21  1  0  0  0
 14 22  1  0  0  0
 15 23  1  0  0  0
 16 24  1  0  0  0
M  END
$$$$
