


  4  2  0  0  1  0            999 V2000
   -0.7666   -3.2778    4.4365 O   0  0  0  0  0  0
   -0.7422   -2.4365    4.9462 H   0  0  0  0  0  0
   -0.7845   -3.9830    5.1226 H   0  0  0  0  0  0
    0.0000    0.0000    0.0000 I   0  0  0  0  0  0
  1  2  1  0  0  0
  1  3  1  0  0  0
M  CHG  1   4  -1
M  END
$$$$
