


  4  2  0  0  1  0            999 V2000
    0.7855    3.5104    0.5363 O   0  0  0  0  0  0
    0.6168    2.5437    0.6098 H   0  0  0  0  0  0
    1.7644    3.5870    0.4705 H   0  0  0  0  0  0
   -0.1147   -0.4792   -0.0852 I   0  0  0  0  0  0
  1  2  1  0  0  0
  1  3  1  0  0  0
M  CHG  1   4  -1
M  END
$$$$
