


  4  2  0  0  1  0            999 V2000
   -0.0532    0.4883    3.5325 O   0  0  0  0  0  0
   -0.3806    0.0291    2.7261 H   0  0  0  0  0  0
    0.7336   -0.0323    3.8122 H   0  0  0  0  0  0
   -0.0261    0.0689    0.6961 I   0  0  0  0  0  0
  1  2  1  0  0  0
  1  3  1  0  0  0
M  CHG  1   4  -1
M  END
$$$$
