


  4  2  0  0  1  0            999 V2000
   -2.2467   -2.5318    1.5426 O   0  0  0  0  0  0
   -1.7372   -1.7736    1.1769 H   0  0  0  0  0  0
   -2.8586   -2.7923    0.8174 H   0  0  0  0  0  0
   -0.3087   -0.3356    0.2052 I   0  0  0  0  0  0
  1  2  1  0  0  0
  1  3  1  0  0  0
M  CHG  1   4  -1
M  END
$$$$
