


  4  2  0  0  1  0            999 V2000
   -3.5417    3.7346   -0.6316 O   0  0  0  0  0  0
   -3.4164    2.8311   -1.0005 H   0  0  0  0  0  0
   -4.4989    3.9240   -0.7590 H   0  0  0  0  0  0
    0.0000    0.0000    0.0000 I   0  0  0  0  0  0
  1  2  1  0  0  0
  1  3  1  0  0  0
M  CHG  1   4  -1
M  END
$$$$
