


  4  2  0  0  1  0            999 V2000
    1.9544   -0.4814    3.8181 O   0  0  0  0  0  0
    2.4160   -0.7226    2.9832 H   0  0  0  0  0  0
    2.0665    0.4934    3.8908 H   0  0  0  0  0  0
    0.0000    0.0000    0.0000 I   0  0  0  0  0  0
  1  2  1  0  0  0
  1  3  1  0  0  0
M  CHG  1   4  -1
M  END
$$$$
