


  7  5  0  0  1  0            999 V2000
    1.3326    1.0561    2.7643 C   0  0  0  0  0  0
    1.9634    0.4691    1.6303 O   0  0  0  0  0  0
    1.4897    0.3618    3.6068 H   0  0  0  0  0  0
    0.2478    1.1884    2.6150 H   0  0  0  0  0  0
    1.7734    2.0327    3.0265 H   0  0  0  0  0  0
    1.8348    1.0725    0.8690 H   0  0  0  0  0  0
    1.2800    2.8660   -0.7540 Cl  0  0  0  0  0  0
  1  2  1  0  0  0
  1  3  1  0  0  0
  1  4  1  0  0  0
  1  5  1  0  0  0
  2  6  1  0  0  0
M  CHG  1   7  -1
M  END
$$$$
