


 23 21  0  0  1  0            999 V2000
    1.3695    1.8624    4.6576 C   0  0  0  0  0  0
    2.0084    2.2760    3.3323 C   0  0  0  0  0  0
    3.0188    1.2499    2.8244 C   0  0  0  0  0  0
    3.6578    1.6635    1.4991 C   0  0  0  0  0  0
    0.6455    2.6213    4.9992 H   0  0  0  0  0  0
    2.1466    1.7442    5.4314 H   0  0  0  0  0  0
    0.8419    0.9010    4.5392 H   0  0  0  0  0  0
    1.2189    2.4077    2.5676 H   0  0  0  0  0  0
    2.5210    3.2491    3.4580 H   0  0  0  0  0  0
    3.8084    1.1182    3.5891 H   0  0  0  0  0  0
    2.5063    0.2768    2.6988 H   0  0  0  0  0  0
    4.1854    2.6249    1.6176 H   0  0  0  0  0  0
    2.8807    1.7817    0.7254 H   0  0  0  0  0  0
    4.3818    0.9046    1.1576 H   0  0  0  0  0  0
   -3.2251    0.8225    1.5209 C   0  0  0  0  0  0
   -2.1525   -0.3099    0.6215 S   0  0  0  0  0  0
   -1.8633    0.7114   -0.8328 C   0  0  0  0  0  0
   -3.5090    0.3415    2.4721 H   0  0  0  0  0  0
   -4.1433    1.0461    0.9520 H   0  0  0  0  0  0
   -2.7110    1.7719    1.7465 H   0  0  0  0  0  0
   -2.8049    0.9370   -1.3611 H   0  0  0  0  0  0
   -1.3726    1.6628   -0.5667 H   0  0  0  0  0  0
   -1.2014    0.1533   -1.5162 H   0  0  0  0  0  0
  1  2  1  0  0  0
  2  3  1  0  0  0
  3  4  1  0  0  0
  1  5  1  0  0  0
  1  6  1  0  0  0
  1  7  1  0  0  0
  2  8  1  0  0  0
  2  9  1  0  0  0
  3 10  1  0  0  0
  3 11  1  0  0  0
  4 12  1  0  0  0
  4 13  1  0  0  0
  4 14  1  0  0  0
 15 16  1  0  0  0
 16 17  1  0  0  0
 15 18  1  0  0  0
 15 19  1  0  0  0
 15 20  1  0  0  0
 17 21  1  0  0  0
 17 22  1  0  0  0
 17 23  1  0  0  0
M  END
$$$$
