


  9  7  0  0  1  0            999 V2000
    0.0000    0.0000    0.0000 C   0  0  0  0  0  0
   -0.6011   -0.7883   -1.1023 O   0  0  0  0  0  0
    0.3137   -0.7443    0.7511 H   0  0  0  0  0  0
   -0.8525    0.5708    0.4051 H   0  0  0  0  0  0
    0.8373    0.6960   -0.1767 H   0  0  0  0  0  0
   -1.3075   -1.2977   -0.6529 H   0  0  0  0  0  0
   -2.9044    0.3808   -1.1126 O   0  0  0  0  0  0
   -2.7956   -0.3939   -0.5157 H   0  0  0  0  0  0
   -1.9892    0.6073   -1.3944 H   0  0  0  0  0  0
  1  2  1  0  0  0
  1  3  1  0  0  0
  1  4  1  0  0  0
  1  5  1  0  0  0
  2  6  1  0  0  0
  7  8  1  0  0  0
  7  9  1  0  0  0
M  END
$$$$
