


  9  7  0  0  1  0            999 V2000
    0.0000    0.0000    0.0000 C   0  0  0  0  0  0
    1.0425   -0.8676   -0.4342 O   0  0  0  0  0  0
   -1.0196   -0.2468   -0.3408 H   0  0  0  0  0  0
    0.2547    1.0122   -0.3565 H   0  0  0  0  0  0
    0.0115    0.0022    1.1029 H   0  0  0  0  0  0
    1.8686   -0.6677    0.0536 H   0  0  0  0  0  0
    0.6306   -0.9373   -3.0032 O   0  0  0  0  0  0
    0.7509   -0.7807   -2.0392 H   0  0  0  0  0  0
    0.4743   -0.0427   -3.3822 H   0  0  0  0  0  0
  1  2  1  0  0  0
  1  3  1  0  0  0
  1  4  1  0  0  0
  1  5  1  0  0  0
  2  6  1  0  0  0
  7  8  1  0  0  0
  7  9  1  0  0  0
M  END
$$$$
