


  9  7  0  0  1  0            999 V2000
    0.0000    0.0000    0.0000 C   0  0  0  0  0  0
   -0.0867    0.7958    1.1941 O   0  0  0  0  0  0
   -0.8871   -0.6544   -0.0381 H   0  0  0  0  0  0
    0.8974   -0.6304    0.1177 H   0  0  0  0  0  0
    0.0761    0.5455   -0.9557 H   0  0  0  0  0  0
    0.2849    0.1656    1.8462 H   0  0  0  0  0  0
    3.4320    2.7265    0.6429 O   0  0  0  0  0  0
    4.1034    3.0020    1.3074 H   0  0  0  0  0  0
    3.0701    1.8806    0.9919 H   0  0  0  0  0  0
  1  2  1  0  0  0
  1  3  1  0  0  0
  1  4  1  0  0  0
  1  5  1  0  0  0
  2  6  1  0  0  0
  7  8  1  0  0  0
  7  9  1  0  0  0
M  END
$$$$
