


  9  7  0  0  1  0            999 V2000
    0.0000    0.0000    0.0000 C   0  0  0  0  0  0
    0.5106    0.7699    1.1086 O   0  0  0  0  0  0
   -0.9009   -0.5250    0.3596 H   0  0  0  0  0  0
    0.7595   -0.7516   -0.2738 H   0  0  0  0  0  0
   -0.2654    0.5767   -0.9020 H   0  0  0  0  0  0
   -0.3297    1.1376    1.4538 H   0  0  0  0  0  0
   -1.9395    1.4341    2.7970 O   0  0  0  0  0  0
   -1.2507    2.0017    3.2113 H   0  0  0  0  0  0
   -2.7677    1.9616    2.8622 H   0  0  0  0  0  0
  1  2  1  0  0  0
  1  3  1  0  0  0
  1  4  1  0  0  0
  1  5  1  0  0  0
  2  6  1  0  0  0
  7  8  1  0  0  0
  7  9  1  0  0  0
M  END
$$$$
