


  9  7  0  0  1  0            999 V2000
    0.0000    0.0000    0.0000 C   0  0  0  0  0  0
   -1.0709    0.9569   -0.1971 O   0  0  0  0  0  0
    0.8429    0.4265    0.5693 H   0  0  0  0  0  0
    0.3868   -0.4071   -0.9493 H   0  0  0  0  0  0
   -0.4372   -0.8266    0.5850 H   0  0  0  0  0  0
   -0.8772    1.4255   -1.0357 H   0  0  0  0  0  0
   -0.4576    5.2907   -1.6577 O   0  0  0  0  0  0
    0.1043    4.5405   -1.9574 H   0  0  0  0  0  0
    0.1555    6.0594   -1.6180 H   0  0  0  0  0  0
  1  2  1  0  0  0
  1  3  1  0  0  0
  1  4  1  0  0  0
  1  5  1  0  0  0
  2  6  1  0  0  0
  7  8  1  0  0  0
  7  9  1  0  0  0
M  END
$$$$
