


  9  7  0  0  1  0            999 V2000
    0.0000    0.0000    0.0000 C   0  0  0  0  0  0
    0.1630   -1.0444   -0.9207 O   0  0  0  0  0  0
    0.0554   -0.3582    1.0418 H   0  0  0  0  0  0
   -0.9686    0.5069   -0.1467 H   0  0  0  0  0  0
    0.8086    0.7321   -0.1638 H   0  0  0  0  0  0
   -0.0679   -0.7338   -1.8211 H   0  0  0  0  0  0
   -1.9018    0.6812    3.2171 O   0  0  0  0  0  0
   -2.5915    0.1353    2.7760 H   0  0  0  0  0  0
   -1.4821    1.1888    2.4860 H   0  0  0  0  0  0
  1  2  1  0  0  0
  1  3  1  0  0  0
  1  4  1  0  0  0
  1  5  1  0  0  0
  2  6  1  0  0  0
  7  8  1  0  0  0
  7  9  1  0  0  0
M  END
$$$$
