


  9  7  0  0  1  0            999 V2000
    0.0000    0.0000    0.0000 C   0  0  0  0  0  0
    0.0055   -1.3225    0.5218 O   0  0  0  0  0  0
    0.5445   -0.0143   -0.9591 H   0  0  0  0  0  0
    0.5330    0.6682    0.6972 H   0  0  0  0  0  0
   -1.0100    0.4073   -0.1749 H   0  0  0  0  0  0
   -0.3102   -1.2535    1.4470 H   0  0  0  0  0  0
   -0.8159   -2.8467    3.1606 O   0  0  0  0  0  0
   -1.0563   -3.4635    3.8886 H   0  0  0  0  0  0
   -1.3094   -2.0198    3.3629 H   0  0  0  0  0  0
  1  2  1  0  0  0
  1  3  1  0  0  0
  1  4  1  0  0  0
  1  5  1  0  0  0
  2  6  1  0  0  0
  7  8  1  0  0  0
  7  9  1  0  0  0
M  END
$$$$
