


 17 16  0  0  1  0            999 V2000
    1.7712    2.6667    1.9282 O   0  0  0  0  0  0
    1.3227    1.5152    2.1818 C   0  0  0  0  0  0
    0.9136    0.6320    1.3792 O   0  0  0  0  0  0
    1.3054    1.1173    3.6834 C   0  0  0  0  0  0
    2.2697    0.6436    3.9331 H   0  0  0  0  0  0
    1.1705    2.0017    4.3286 H   0  0  0  0  0  0
    0.4953    0.3997    3.8963 H   0  0  0  0  0  0
    1.8570    3.2429   -0.5628 C   0  0  0  0  0  0
    1.3296    1.9657   -0.7161 C   0  0  0  0  0  0
    1.0770    1.5388   -2.0150 C   0  0  0  0  0  0
    1.3258    2.3129   -3.0803 N   0  0  0  0  0  0
    1.8330    3.5231   -2.8142 C   0  0  0  0  0  0
    2.1153    4.0375   -1.6106 N   0  0  0  0  0  0
    2.0840    3.6526    0.4303 H   0  0  0  0  0  0
    1.1218    1.3230    0.1496 H   0  0  0  0  0  0
    0.6607    0.5435   -2.2192 H   0  0  0  0  0  0
    2.0407    4.1658   -3.6799 H   0  0  0  0  0  0
  1  2  1  0  0  0
  2  3  2  0  0  0
  2  4  1  0  0  0
  4  5  1  0  0  0
  4  6  1  0  0  0
  4  7  1  0  0  0
  8  9  2  0  0  0
  9 10  1  0  0  0
 10 11  2  0  0  0
 11 12  1  0  0  0
 12 13  2  0  0  0
  8 13  1  0  0  0
  8 14  1  0  0  0
  9 15  1  0  0  0
 10 16  1  0  0  0
 12 17  1  0  0  0
M  CHG  1   1  -1
M  END
$$$$
