


 22 20  0  0  1  0            999 V2000
    0.0000    0.0000    0.0000 C   0  0  0  0  0  0
    0.8715    0.5493    1.1516 C   0  0  0  0  0  0
    1.3144    1.9619    0.7930 C   0  0  0  0  0  0
    0.3604    0.1462   -1.0322 H   0  0  0  0  0  0
   -1.0035    0.4491    0.0892 H   0  0  0  0  0  0
   -0.0806   -1.0827    0.1945 H   0  0  0  0  0  0
    0.2959    0.5437    2.0972 H   0  0  0  0  0  0
    1.7262   -0.1435    1.2738 H   0  0  0  0  0  0
    0.4469    2.6388    0.7162 H   0  0  0  0  0  0
    1.8352    1.9458   -0.1791 H   0  0  0  0  0  0
    2.0048    2.3601    1.5555 H   0  0  0  0  0  0
   -2.8208   -3.4393    0.8349 C   0  0  0  0  0  0
   -2.9774   -2.3268    1.9758 C   0  0  0  0  0  0
   -1.6022   -2.0950    2.6133 C   0  0  0  0  0  0
   -2.4967   -4.3997    1.2698 H   0  0  0  0  0  0
   -2.0706   -3.1181    0.0928 H   0  0  0  0  0  0
   -3.7829   -3.5940    0.3181 H   0  0  0  0  0  0
   -3.3482   -1.4422    1.4231 H   0  0  0  0  0  0
   -3.7645   -2.6299    2.6928 H   0  0  0  0  0  0
   -0.8399   -2.0468    1.8175 H   0  0  0  0  0  0
   -1.4103   -2.9886    3.2307 H   0  0  0  0  0  0
   -1.5035   -1.1997    3.2498 H   0  0  0  0  0  0
  1  2  1  0  0  0
  2  3  1  0  0  0
  1  4  1  0  0  0
  1  5  1  0  0  0
  1  6  1  0  0  0
  2  7  1  0  0  0
  2  8  1  0  0  0
  3  9  1  0  0  0
  3 10  1  0  0  0
  3 11  1  0  0  0
 12 13  1  0  0  0
 13 14  1  0  0  0
 12 15  1  0  0  0
 12 16  1  0  0  0
 12 17  1  0  0  0
 13 18  1  0  0  0
 13 19  1  0  0  0
 14 20  1  0  0  0
 14 21  1  0  0  0
 14 22  1  0  0  0
M  END
$$$$
