


 22 20  0  0  1  0            999 V2000
   -5.3685    3.9910    3.7315 C   0  0  0  0  0  0
   -4.9606    4.4468    5.0991 C   0  0  0  0  0  0
   -3.4136    4.4250    5.3479 C   0  0  0  0  0  0
   -4.9834    2.9612    3.6433 H   0  0  0  0  0  0
   -4.9654    4.5900    2.8976 H   0  0  0  0  0  0
   -6.4678    3.9641    3.6461 H   0  0  0  0  0  0
   -5.2905    5.5024    5.1478 H   0  0  0  0  0  0
   -5.4998    3.8889    5.8887 H   0  0  0  0  0  0
   -2.8793    4.9929    4.5678 H   0  0  0  0  0  0
   -3.0429    3.3862    5.3429 H   0  0  0  0  0  0
   -3.1859    4.8750    6.3288 H   0  0  0  0  0  0
   -2.6399   -2.1710    4.0047 C   0  0  0  0  0  0
   -2.8012   -3.3188    2.9829 C   0  0  0  0  0  0
   -2.6300   -4.8128    3.4830 C   0  0  0  0  0  0
   -2.5795   -1.1875    3.5088 H   0  0  0  0  0  0
   -1.7347   -2.3114    4.6190 H   0  0  0  0  0  0
   -3.5204   -2.1765    4.6691 H   0  0  0  0  0  0
   -3.8144   -3.2342    2.5450 H   0  0  0  0  0  0
   -2.0684   -3.1871    2.1637 H   0  0  0  0  0  0
   -1.8063   -4.8690    4.2144 H   0  0  0  0  0  0
   -2.4391   -5.5456    2.6810 H   0  0  0  0  0  0
   -3.5707   -5.0843    3.9910 H   0  0  0  0  0  0
  1  2  1  0  0  0
  2  3  1  0  0  0
  1  4  1  0  0  0
  1  5  1  0  0  0
  1  6  1  0  0  0
  2  7  1  0  0  0
  2  8  1  0  0  0
  3  9  1  0  0  0
  3 10  1  0  0  0
  3 11  1  0  0  0
 12 13  1  0  0  0
 13 14  1  0  0  0
 12 15  1  0  0  0
 12 16  1  0  0  0
 12 17  1  0  0  0
 13 18  1  0  0  0
 13 19  1  0  0  0
 14 20  1  0  0  0
 14 21  1  0  0  0
 14 22  1  0  0  0
M  END
$$$$
