


 22 20  0  0  1  0            999 V2000
    0.0000    0.0000    0.0000 C   0  0  0  0  0  0
    0.4325   -1.0637    1.0326 C   0  0  0  0  0  0
   -0.5197   -2.2122    1.1304 C   0  0  0  0  0  0
   -0.8922    0.5068    0.4047 H   0  0  0  0  0  0
   -0.2630   -0.4538   -0.9703 H   0  0  0  0  0  0
    0.7878    0.7539   -0.1661 H   0  0  0  0  0  0
    1.4554   -1.3786    0.7496 H   0  0  0  0  0  0
    0.4903   -0.5905    2.0317 H   0  0  0  0  0  0
   -1.4777   -1.7759    1.4599 H   0  0  0  0  0  0
   -0.1871   -2.9427    1.8870 H   0  0  0  0  0  0
   -0.6841   -2.7428    0.1775 H   0  0  0  0  0  0
   -2.5111   -2.1953    5.7800 C   0  0  0  0  0  0
   -2.6202   -1.0374    4.7669 C   0  0  0  0  0  0
   -3.3768   -1.4544    3.5041 C   0  0  0  0  0  0
   -1.6904   -2.9077    5.5914 H   0  0  0  0  0  0
   -3.4627   -2.7524    5.8011 H   0  0  0  0  0  0
   -2.3535   -1.7306    6.7678 H   0  0  0  0  0  0
   -3.1671   -0.1690    5.1821 H   0  0  0  0  0  0
   -1.5789   -0.7169    4.5708 H   0  0  0  0  0  0
   -2.7837   -2.2441    3.0131 H   0  0  0  0  0  0
   -3.5332   -0.6331    2.7847 H   0  0  0  0  0  0
   -4.3596   -1.8725    3.7797 H   0  0  0  0  0  0
  1  2  1  0  0  0
  2  3  1  0  0  0
  1  4  1  0  0  0
  1  5  1  0  0  0
  1  6  1  0  0  0
  2  7  1  0  0  0
  2  8  1  0  0  0
  3  9  1  0  0  0
  3 10  1  0  0  0
  3 11  1  0  0  0
 12 13  1  0  0  0
 13 14  1  0  0  0
 12 15  1  0  0  0
 12 16  1  0  0  0
 12 17  1  0  0  0
 13 18  1  0  0  0
 13 19  1  0  0  0
 14 20  1  0  0  0
 14 21  1  0  0  0
 14 22  1  0  0  0
M  END
$$$$
