


 22 20  0  0  1  0            999 V2000
    0.0000    0.0000    0.0000 C   0  0  0  0  0  0
    0.4325   -1.0637    1.0326 C   0  0  0  0  0  0
   -0.5197   -2.2122    1.1304 C   0  0  0  0  0  0
   -0.8922    0.5068    0.4047 H   0  0  0  0  0  0
   -0.2630   -0.4538   -0.9703 H   0  0  0  0  0  0
    0.7878    0.7539   -0.1661 H   0  0  0  0  0  0
    1.4554   -1.3786    0.7496 H   0  0  0  0  0  0
    0.4903   -0.5905    2.0317 H   0  0  0  0  0  0
   -1.4777   -1.7759    1.4599 H   0  0  0  0  0  0
   -0.1871   -2.9427    1.8870 H   0  0  0  0  0  0
   -0.6841   -2.7428    0.1775 H   0  0  0  0  0  0
   -3.0731   -2.1310    6.3456 C   0  0  0  0  0  0
   -3.1823   -0.9731    5.3326 C   0  0  0  0  0  0
   -3.9389   -1.3901    4.0698 C   0  0  0  0  0  0
   -2.2524   -2.8434    6.1570 H   0  0  0  0  0  0
   -4.0248   -2.6882    6.3667 H   0  0  0  0  0  0
   -2.9155   -1.6663    7.3335 H   0  0  0  0  0  0
   -3.7291   -0.1048    5.7477 H   0  0  0  0  0  0
   -2.1409   -0.6527    5.1365 H   0  0  0  0  0  0
   -3.3457   -2.1798    3.5788 H   0  0  0  0  0  0
   -4.0952   -0.5688    3.3504 H   0  0  0  0  0  0
   -4.9216   -1.8083    4.3454 H   0  0  0  0  0  0
  1  2  1  0  0  0
  2  3  1  0  0  0
  1  4  1  0  0  0
  1  5  1  0  0  0
  1  6  1  0  0  0
  2  7  1  0  0  0
  2  8  1  0  0  0
  3  9  1  0  0  0
  3 10  1  0  0  0
  3 11  1  0  0  0
 12 13  1  0  0  0
 13 14  1  0  0  0
 12 15  1  0  0  0
 12 16  1  0  0  0
 12 17  1  0  0  0
 13 18  1  0  0  0
 13 19  1  0  0  0
 14 20  1  0  0  0
 14 21  1  0  0  0
 14 22  1  0  0  0
M  END
$$$$
