


 20 19  0  0  1  0            999 V2000
    5.5257    1.7057   -4.0909 C   0  0  0  0  0  0
    4.7964    1.9690   -2.8075 C   0  0  0  0  0  0
    4.8144    2.9991   -2.1715 O   0  0  0  0  0  0
    4.0821    0.8804   -2.4177 O   0  0  0  0  0  0
    6.0998    2.5977   -4.3932 H   0  0  0  0  0  0
    4.8119    1.4578   -4.8944 H   0  0  0  0  0  0
    6.2253    0.8617   -3.9690 H   0  0  0  0  0  0
    3.6380    1.1475   -1.5672 H   0  0  0  0  0  0
   -0.9208   -0.5778    2.9339 C   0  0  0  0  0  0
    0.1801   -1.0421    3.6546 C   0  0  0  0  0  0
    1.1302   -0.1401    4.1352 C   0  0  0  0  0  0
    0.9794    1.2261    3.8950 C   0  0  0  0  0  0
   -0.1215    1.6904    3.1743 C   0  0  0  0  0  0
   -1.0716    0.7885    2.6937 C   0  0  0  0  0  0
   -1.6684   -1.2875    2.5557 H   0  0  0  0  0  0
    0.2988   -2.1172    3.8436 H   0  0  0  0  0  0
    1.9965   -0.5055    4.7023 H   0  0  0  0  0  0
    1.7270    1.9358    4.2731 H   0  0  0  0  0  0
   -0.2402    2.7655    2.9853 H   0  0  0  0  0  0
   -1.9379    1.1539    2.1266 H   0  0  0  0  0  0
  1  2  1  0  0  0
  2  3  2  0  0  0
  2  4  1  0  0  0
  1  5  1  0  0  0
  1  6  1  0  0  0
  1  7  1  0  0  0
  4  8  1  0  0  0
  9 10  1  0  0  0
 10 11  2  0  0  0
 11 12  1  0  0  0
 12 13  2  0  0  0
 13 14  1  0  0  0
  9 14  2  0  0  0
  9 15  1  0  0  0
 10 16  1  0  0  0
 11 17  1  0  0  0
 12 18  1  0  0  0
 13 19  1  0  0  0
 14 20  1  0  0  0
M  END
$$$$
