


 13 12  0  0  1  0            999 V2000
    2.6975    0.4444    2.3596 C   0  0  0  0  0  0
    2.3437    1.8798    2.5688 C   0  0  0  0  0  0
    1.5661    2.4388    3.5631 C   0  0  0  0  0  0
    1.5519    3.7883    3.3053 N   0  0  0  0  0  0
    1.0661    4.5043    3.8510 H   0  0  0  0  0  0
    2.3036    3.9999    2.1892 C   0  0  0  0  0  0
    2.7969    2.8654    1.7190 N   0  0  0  0  0  0
    2.2392   -0.1828    3.1427 H   0  0  0  0  0  0
    3.7917    0.3108    2.3974 H   0  0  0  0  0  0
    2.3349    0.1005    1.3763 H   0  0  0  0  0  0
    1.0358    2.0025    4.4096 H   0  0  0  0  0  0
    2.4576    4.9921    1.7652 H   0  0  0  0  0  0
   -0.2761    2.5803    0.8860 Ar  0  0  0  0  0  0
  1  2  1  0  0  0
  2  3  2  0  0  0
  3  4  1  0  0  0
  4  5  1  0  0  0
  4  6  1  0  0  0
  6  7  2  0  0  0
  2  7  1  0  0  0
  1  8  1  0  0  0
  1  9  1  0  0  0
  1 10  1  0  0  0
  3 11  1  0  0  0
  6 12  1  0  0  0
M  END
$$$$
