


 20 18  0  0  1  0            999 V2000
   -1.1887    0.0420    2.6501 C   0  0  0  0  0  0
    0.1699   -0.6593    2.6863 C   0  0  0  0  0  0
    1.2329    0.0684    3.3814 N   0  0  0  0  0  0
   -1.5547    0.2138    3.6763 H   0  0  0  0  0  0
   -1.9300   -0.5710    2.1102 H   0  0  0  0  0  0
   -1.0997    1.0162    2.1406 H   0  0  0  0  0  0
    0.0625   -1.6425    3.1835 H   0  0  0  0  0  0
    0.5166   -0.8418    1.6509 H   0  0  0  0  0  0
    0.9521    0.2526    4.3509 H   0  0  0  0  0  0
    1.3686    0.9871    2.9451 H   0  0  0  0  0  0
    3.8589   -0.0573   -0.1180 C   0  0  0  0  0  0
    2.6376    0.3778   -1.3752 S   0  0  0  0  0  0
    1.7936    2.0590   -0.5904 S   0  0  0  0  0  0
    2.9323    3.3486   -1.1400 C   0  0  0  0  0  0
    4.3477   -0.9916   -0.4418 H   0  0  0  0  0  0
    3.3841   -0.2302    0.8624 H   0  0  0  0  0  0
    4.6310    0.7219   -0.0024 H   0  0  0  0  0  0
    3.9438    3.2151   -0.7208 H   0  0  0  0  0  0
    3.0083    3.3771   -2.2400 H   0  0  0  0  0  0
    2.5311    4.3146   -0.7899 H   0  0  0  0  0  0
  1  2  1  0  0  0
  2  3  1  0  0  0
  1  4  1  0  0  0
  1  5  1  0  0  0
  1  6  1  0  0  0
  2  7  1  0  0  0
  2  8  1  0  0  0
  3  9  1  0  0  0
  3 10  1  0  0  0
 11 12  1  0  0  0
 12 13  1  0  0  0
 13 14  1  0  0  0
 11 15  1  0  0  0
 11 16  1  0  0  0
 11 17  1  0  0  0
 14 18  1  0  0  0
 14 19  1  0  0  0
 14 20  1  0  0  0
M  END
$$$$
