


 23 22  0  0  1  0            999 V2000
    0.8195    4.0213    2.6658 C   0  0  0  0  0  0
    2.2298    4.2197    3.2323 C   0  0  0  0  0  0
    3.2644    3.2299    2.7015 C   0  0  0  0  0  0
    3.5448    3.4149    0.9194 S   0  0  0  0  0  0
    1.6683    2.9101    0.2634 S   0  0  0  0  0  0
    0.7240    4.1795    1.1499 C   0  0  0  0  0  0
    0.1448    4.7624    3.1360 H   0  0  0  0  0  0
    0.4531    3.0126    2.9373 H   0  0  0  0  0  0
    2.5763    5.2460    3.0041 H   0  0  0  0  0  0
    2.1833    4.1173    4.3336 H   0  0  0  0  0  0
    2.9716    2.1822    2.9065 H   0  0  0  0  0  0
    4.2508    3.4022    3.1735 H   0  0  0  0  0  0
   -0.3220    4.0600    0.8078 H   0  0  0  0  0  0
    1.0744    5.1761    0.8194 H   0  0  0  0  0  0
    3.0963   -2.1156    0.4877 C   0  0  0  0  0  0
    3.2145   -1.6148    1.9163 C   0  0  0  0  0  0
    1.9808   -1.1025    2.4226 O   0  0  0  0  0  0
    2.3159   -2.8922    0.4206 H   0  0  0  0  0  0
    4.0540   -2.5494    0.1541 H   0  0  0  0  0  0
    2.8290   -1.2887   -0.1915 H   0  0  0  0  0  0
    3.4794   -2.4467    2.5970 H   0  0  0  0  0  0
    4.0115   -0.8504    1.9929 H   0  0  0  0  0  0
    1.7163   -0.3508    1.8521 H   0  0  0  0  0  0
  1  2  1  0  0  0
  2  3  1  0  0  0
  3  4  1  0  0  0
  4  5  1  0  0  0
  5  6  1  0  0  0
  1  6  1  0  0  0
  1  7  1  0  0  0
  1  8  1  0  0  0
  2  9  1  0  0  0
  2 10  1  0  0  0
  3 11  1  0  0  0
  3 12  1  0  0  0
  6 13  1  0  0  0
  6 14  1  0  0  0
 15 16  1  0  0  0
 16 17  1  0  0  0
 15 18  1  0  0  0
 15 19  1  0  0  0
 15 20  1  0  0  0
 16 21  1  0  0  0
 16 22  1  0  0  0
 17 23  1  0  0  0
M  END
$$$$
