


 17 15  0  0  1  0            999 V2000
    3.4461    3.6100    3.9329 C   0  0  0  0  0  0
    2.7749    3.9510    2.6827 N   0  0  0  0  0  0
    2.0443    3.0963    1.9755 C   0  0  0  0  0  0
    1.4594    3.4857    0.8367 N   0  0  0  0  0  0
    1.5737    4.4470    0.5061 H   0  0  0  0  0  0
    0.8980    2.8225    0.2967 H   0  0  0  0  0  0
    1.8923    1.8410    2.4027 N   0  0  0  0  0  0
    3.9754    4.5064    4.2975 H   0  0  0  0  0  0
    4.1825    2.8022    3.7856 H   0  0  0  0  0  0
    2.7231    3.2910    4.7024 H   0  0  0  0  0  0
    2.8706    4.9051    2.3263 H   0  0  0  0  0  0
    2.3382    1.5402    3.2728 H   0  0  0  0  0  0
    1.3304    1.1799    1.8607 H   0  0  0  0  0  0
   -0.4100   -0.8859    0.1917 N   0  0  0  0  0  0
   -0.3684   -1.7607    0.7243 H   0  0  0  0  0  0
   -0.0595   -1.0929   -0.7490 H   0  0  0  0  0  0
   -1.4011   -0.6435    0.0938 H   0  0  0  0  0  0
  1  2  1  0  0  0
  2  3  1  0  0  0
  3  4  2  0  0  0
  4  5  1  0  0  0
  4  6  1  0  0  0
  3  7  1  0  0  0
  1  8  1  0  0  0
  1  9  1  0  0  0
  1 10  1  0  0  0
  2 11  1  0  0  0
  7 12  1  0  0  0
  7 13  1  0  0  0
 14 15  1  0  0  0
 14 16  1  0  0  0
 14 17  1  0  0  0
M  CHG  1   4   1
M  END
$$$$
