


 24 23  0  0  1  0            999 V2000
   -0.9434    1.9878    1.1327 C   0  0  0  0  0  0
    0.0555    1.5865    0.0479 C   0  0  0  0  0  0
    0.9177    2.7584   -0.4160 C   0  0  0  0  0  0
    1.9167    2.3571   -1.5009 C   0  0  0  0  0  0
   -1.5511    1.1228    1.4475 H   0  0  0  0  0  0
   -1.6189    2.7727    0.7529 H   0  0  0  0  0  0
   -0.4077    2.3805    2.0133 H   0  0  0  0  0  0
    0.7176    0.7875    0.4336 H   0  0  0  0  0  0
   -0.4911    1.1789   -0.8241 H   0  0  0  0  0  0
    0.2557    3.5573   -0.8018 H   0  0  0  0  0  0
    1.4644    3.1660    0.4560 H   0  0  0  0  0  0
    1.3809    1.9644   -2.3814 H   0  0  0  0  0  0
    2.5921    1.5722   -1.1211 H   0  0  0  0  0  0
    2.5243    3.2221   -1.8157 H   0  0  0  0  0  0
    2.5987   -1.5456    2.6625 C   0  0  0  0  0  0
    3.6758   -1.0080    1.9795 C   0  0  0  0  0  0
    3.8419    0.3264    2.4293 C   0  0  0  0  0  0
    2.8620    0.5707    3.3758 C   0  0  0  0  0  0
    2.1202   -0.5745    3.5025 N   0  0  0  0  0  0
    1.3233   -0.6881    4.1338 H   0  0  0  0  0  0
    2.1378   -2.5325    2.6190 H   0  0  0  0  0  0
    4.2763   -1.5299    1.2344 H   0  0  0  0  0  0
    4.5962    1.0415    2.1011 H   0  0  0  0  0  0
    2.6346    1.4594    3.9646 H   0  0  0  0  0  0
  1  2  1  0  0  0
  2  3  1  0  0  0
  3  4  1  0  0  0
  1  5  1  0  0  0
  1  6  1  0  0  0
  1  7  1  0  0  0
  2  8  1  0  0  0
  2  9  1  0  0  0
  3 10  1  0  0  0
  3 11  1  0  0  0
  4 12  1  0  0  0
  4 13  1  0  0  0
  4 14  1  0  0  0
 15 16  2  0  0  0
 16 17  1  0  0  0
 17 18  2  0  0  0
 18 19  1  0  0  0
 19 20  1  0  0  0
 15 19  1  0  0  0
 15 21  1  0  0  0
 16 22  1  0  0  0
 17 23  1  0  0  0
 18 24  1  0  0  0
M  END
$$$$
