


 15 13  0  0  1  0            999 V2000
    0.0000    0.0000    0.0000 N   0  0  0  0  0  0
   -1.2432   -0.3855   -0.2341 C   0  0  0  0  0  0
   -1.3365   -1.5870   -0.3657 O   0  0  0  0  0  0
   -2.3952    0.5838   -0.3550 C   0  0  0  0  0  0
   -2.6854    0.6357   -1.8748 C   0  0  0  0  0  0
   -3.4581   -0.0825   -2.4925 O   0  0  0  0  0  0
   -2.0258    1.7337   -2.4257 O   0  0  0  0  0  0
    0.1661    0.9999   -0.1382 H   0  0  0  0  0  0
    0.7696   -0.6121    0.2822 H   0  0  0  0  0  0
   -3.2821    0.2237    0.2012 H   0  0  0  0  0  0
   -2.1900    1.6208   -0.0262 H   0  0  0  0  0  0
   -1.4253    2.2658   -1.8356 H   0  0  0  0  0  0
   -2.9201   -3.4454   -1.5068 O   0  0  0  0  0  0
   -3.6755   -3.7414   -0.9500 H   0  0  0  0  0  0
   -2.5085   -2.7116   -0.9966 H   0  0  0  0  0  0
  1  2  1  0  0  0
  2  3  2  0  0  0
  2  4  1  0  0  0
  4  5  1  0  0  0
  5  6  2  0  0  0
  5  7  1  0  0  0
  1  8  1  0  0  0
  1  9  1  0  0  0
  4 10  1  0  0  0
  4 11  1  0  0  0
  7 12  1  0  0  0
 13 14  1  0  0  0
 13 15  1  0  0  0
M  END
$$$$
