


 14 12  0  0  1  0            999 V2000
   -2.4081    2.8680   -3.9148 C   0  0  0  0  0  0
   -1.8083    1.4941   -4.0464 C   0  0  0  0  0  0
   -1.0702    1.1256   -5.0222 O   0  0  0  0  0  0
   -3.4601    2.7674   -4.2308 H   0  0  0  0  0  0
   -1.8987    3.5627   -4.6038 H   0  0  0  0  0  0
   -2.3853    3.2992   -2.8999 H   0  0  0  0  0  0
   -2.1215    0.7866   -3.2407 H   0  0  0  0  0  0
   -2.2560   -5.5222   -1.8666 C   0  0  0  0  0  0
   -1.6159   -5.4915   -3.2551 C   0  0  0  0  0  0
   -2.1962   -5.0174   -4.2346 O   0  0  0  0  0  0
   -1.7573   -4.6743   -1.3678 H   0  0  0  0  0  0
   -2.0843   -6.4328   -1.2683 H   0  0  0  0  0  0
   -3.3403   -5.3225   -1.9000 H   0  0  0  0  0  0
   -0.6052   -5.9410   -3.4101 H   0  0  0  0  0  0
  1  2  1  0  0  0
  2  3  2  0  0  0
  1  4  1  0  0  0
  1  5  1  0  0  0
  1  6  1  0  0  0
  2  7  1  0  0  0
  8  9  1  0  0  0
  9 10  2  0  0  0
  8 11  1  0  0  0
  8 12  1  0  0  0
  8 13  1  0  0  0
  9 14  1  0  0  0
M  END
$$$$
