


 14 12  0  0  1  0            999 V2000
   -1.4152    0.7788    5.3836 C   0  0  0  0  0  0
   -2.6870    1.5506    5.3822 C   0  0  0  0  0  0
   -2.5735    2.6988    4.9779 O   0  0  0  0  0  0
   -1.5750   -0.2098    5.8459 H   0  0  0  0  0  0
   -0.5763    1.2765    5.8986 H   0  0  0  0  0  0
   -1.1410    0.6321    4.3253 H   0  0  0  0  0  0
   -3.5724    1.0839    5.8783 H   0  0  0  0  0  0
   -4.4717   -3.1032   -2.1182 C   0  0  0  0  0  0
   -5.8374   -2.8184   -2.7095 C   0  0  0  0  0  0
   -6.0885   -3.3928   -3.7576 O   0  0  0  0  0  0
   -4.2652   -2.5013   -1.2173 H   0  0  0  0  0  0
   -3.6423   -2.9641   -2.8319 H   0  0  0  0  0  0
   -4.5123   -4.1668   -1.8290 H   0  0  0  0  0  0
   -6.5802   -2.2251   -2.1229 H   0  0  0  0  0  0
  1  2  1  0  0  0
  2  3  2  0  0  0
  1  4  1  0  0  0
  1  5  1  0  0  0
  1  6  1  0  0  0
  2  7  1  0  0  0
  8  9  1  0  0  0
  9 10  2  0  0  0
  8 11  1  0  0  0
  8 12  1  0  0  0
  8 13  1  0  0  0
  9 14  1  0  0  0
M  END
$$$$
