


 14 12  0  0  1  0            999 V2000
   -4.2652    0.8067    2.1481 C   0  0  0  0  0  0
   -4.9756    0.2635    0.9239 C   0  0  0  0  0  0
   -6.0787   -0.2619    0.9800 O   0  0  0  0  0  0
   -4.2636    0.0026    2.9031 H   0  0  0  0  0  0
   -4.8105    1.6733    2.5583 H   0  0  0  0  0  0
   -3.2223    1.1077    1.9524 H   0  0  0  0  0  0
   -4.5349    0.2900   -0.1021 H   0  0  0  0  0  0
    3.4804    5.5478    1.8369 C   0  0  0  0  0  0
    2.2128    4.8026    1.3312 C   0  0  0  0  0  0
    2.3249    4.1022    0.3341 O   0  0  0  0  0  0
    3.9038    6.0002    0.9244 H   0  0  0  0  0  0
    4.1847    4.7860    2.2112 H   0  0  0  0  0  0
    3.3734    6.3346    2.6025 H   0  0  0  0  0  0
    1.2911    4.9257    1.9501 H   0  0  0  0  0  0
  1  2  1  0  0  0
  2  3  2  0  0  0
  1  4  1  0  0  0
  1  5  1  0  0  0
  1  6  1  0  0  0
  2  7  1  0  0  0
  8  9  1  0  0  0
  9 10  2  0  0  0
  8 11  1  0  0  0
  8 12  1  0  0  0
  8 13  1  0  0  0
  9 14  1  0  0  0
M  END
$$$$
