


 14 12  0  0  1  0            999 V2000
    0.1430   -4.5968   -3.8097 C   0  0  0  0  0  0
    0.0896   -3.3927   -2.8709 C   0  0  0  0  0  0
    0.6358   -3.4072   -1.8259 O   0  0  0  0  0  0
    0.8758   -5.2872   -3.3592 H   0  0  0  0  0  0
    0.5050   -4.3028   -4.8093 H   0  0  0  0  0  0
   -0.8164   -5.1286   -3.9254 H   0  0  0  0  0  0
   -0.5427   -2.5642   -3.2728 H   0  0  0  0  0  0
   -4.5061    1.8161   -1.5806 C   0  0  0  0  0  0
   -4.4233    0.3448   -1.2712 C   0  0  0  0  0  0
   -4.3662   -0.5541   -2.1540 O   0  0  0  0  0  0
   -5.5071    2.2495   -1.7445 H   0  0  0  0  0  0
   -3.8785    2.0375   -2.4603 H   0  0  0  0  0  0
   -4.0549    2.2973   -0.6966 H   0  0  0  0  0  0
   -4.4996    0.2039   -0.1658 H   0  0  0  0  0  0
  1  2  1  0  0  0
  2  3  2  0  0  0
  1  4  1  0  0  0
  1  5  1  0  0  0
  1  6  1  0  0  0
  2  7  1  0  0  0
  8  9  1  0  0  0
  9 10  2  0  0  0
  8 11  1  0  0  0
  8 12  1  0  0  0
  8 13  1  0  0  0
  9 14  1  0  0  0
M  END
$$$$
