


 14 12  0  0  1  0            999 V2000
   -5.2831    1.7462    3.0477 C   0  0  0  0  0  0
   -6.7032    2.1249    3.4550 C   0  0  0  0  0  0
   -7.2770    3.1630    3.1615 O   0  0  0  0  0  0
   -5.2604    1.1400    2.1265 H   0  0  0  0  0  0
   -4.7220    1.2131    3.8336 H   0  0  0  0  0  0
   -4.7813    2.7080    2.8483 H   0  0  0  0  0  0
   -7.2594    1.3514    4.0380 H   0  0  0  0  0  0
    0.6951   -1.0803    6.7482 C   0  0  0  0  0  0
   -0.0108   -2.0151    5.7139 C   0  0  0  0  0  0
   -1.2208   -2.0095    5.5732 O   0  0  0  0  0  0
    1.0000   -1.6284    7.6555 H   0  0  0  0  0  0
   -0.0370   -0.3064    7.0340 H   0  0  0  0  0  0
    1.5832   -0.5842    6.3217 H   0  0  0  0  0  0
    0.5982   -2.8537    5.2973 H   0  0  0  0  0  0
  1  2  1  0  0  0
  2  3  2  0  0  0
  1  4  1  0  0  0
  1  5  1  0  0  0
  1  6  1  0  0  0
  2  7  1  0  0  0
  8  9  1  0  0  0
  9 10  2  0  0  0
  8 11  1  0  0  0
  8 12  1  0  0  0
  8 13  1  0  0  0
  9 14  1  0  0  0
M  END
$$$$
