


 14 12  0  0  1  0            999 V2000
    0.0000    0.0000    0.0000 C   0  0  0  0  0  0
    0.2450    0.6418   -1.3124 C   0  0  0  0  0  0
   -0.6433    1.3300   -1.8254 O   0  0  0  0  0  0
    0.9198   -0.3801    0.4754 H   0  0  0  0  0  0
   -0.6302   -0.8595   -0.2842 H   0  0  0  0  0  0
   -0.5495    0.6112    0.7356 H   0  0  0  0  0  0
    1.2170    0.3713   -1.7917 H   0  0  0  0  0  0
   -3.3640    5.9004   -1.0756 C   0  0  0  0  0  0
   -1.8999    5.5352   -1.0408 C   0  0  0  0  0  0
   -1.0766    6.0104   -1.8683 O   0  0  0  0  0  0
   -3.7994    5.6170   -0.1026 H   0  0  0  0  0  0
   -3.9830    5.4654   -1.8781 H   0  0  0  0  0  0
   -3.3914    6.9993   -1.1665 H   0  0  0  0  0  0
   -1.6023    4.8309   -0.2264 H   0  0  0  0  0  0
  1  2  1  0  0  0
  2  3  2  0  0  0
  1  4  1  0  0  0
  1  5  1  0  0  0
  1  6  1  0  0  0
  2  7  1  0  0  0
  8  9  1  0  0  0
  9 10  2  0  0  0
  8 11  1  0  0  0
  8 12  1  0  0  0
  8 13  1  0  0  0
  9 14  1  0  0  0
M  END
$$$$
