


 14 12  0  0  1  0            999 V2000
    1.7153   -2.6248    2.0292 C   0  0  0  0  0  0
    0.9671   -1.6283    2.9390 C   0  0  0  0  0  0
    1.3426   -0.4945    3.0301 O   0  0  0  0  0  0
    2.7806   -2.4923    2.2821 H   0  0  0  0  0  0
    1.5914   -2.4829    0.9424 H   0  0  0  0  0  0
    1.4184   -3.6558    2.2854 H   0  0  0  0  0  0
    0.0599   -2.0112    3.4664 H   0  0  0  0  0  0
   -2.2301   -0.6560   -6.2481 C   0  0  0  0  0  0
   -2.6665   -1.8357   -5.4148 C   0  0  0  0  0  0
   -2.1855   -2.9780   -5.6314 O   0  0  0  0  0  0
   -2.2655   -1.0099   -7.2922 H   0  0  0  0  0  0
   -1.1849   -0.4108   -5.9950 H   0  0  0  0  0  0
   -2.8364    0.2618   -6.1670 H   0  0  0  0  0  0
   -3.4153   -1.5564   -4.6345 H   0  0  0  0  0  0
  1  2  1  0  0  0
  2  3  2  0  0  0
  1  4  1  0  0  0
  1  5  1  0  0  0
  1  6  1  0  0  0
  2  7  1  0  0  0
  8  9  1  0  0  0
  9 10  2  0  0  0
  8 11  1  0  0  0
  8 12  1  0  0  0
  8 13  1  0  0  0
  9 14  1  0  0  0
M  END
$$$$
