


 21 19  0  0  1  0            999 V2000
    0.2058    2.7832    3.1456 C   0  0  0  0  0  0
    1.6363    2.2975    3.1038 C   0  0  0  0  0  0
    2.1144    1.6214    4.0001 O   0  0  0  0  0  0
    2.4406    2.6971    1.8883 C   0  0  0  0  0  0
   -0.2926    2.4341    4.0656 H   0  0  0  0  0  0
   -0.3539    2.4008    2.2755 H   0  0  0  0  0  0
    0.1761    3.8857    3.1260 H   0  0  0  0  0  0
    1.9711    2.3003    0.9725 H   0  0  0  0  0  0
    2.4936    3.7960    1.8087 H   0  0  0  0  0  0
    3.4670    2.2995    1.9582 H   0  0  0  0  0  0
    0.1537   -0.3460    3.2337 C   0  0  0  0  0  0
    0.8698   -0.0780    1.9104 C   0  0  0  0  0  0
    2.3562   -0.4252    1.9861 C   0  0  0  0  0  0
    0.2437   -1.4120    3.5023 H   0  0  0  0  0  0
   -0.9169   -0.0904    3.1620 H   0  0  0  0  0  0
    0.6068    0.2588    4.0371 H   0  0  0  0  0  0
    0.3947   -0.6769    1.1098 H   0  0  0  0  0  0
    0.7571    0.9904    1.6435 H   0  0  0  0  0  0
    2.4822   -1.4925    2.2343 H   0  0  0  0  0  0
    2.8577   -0.2262    1.0240 H   0  0  0  0  0  0
    2.8453    0.1782    2.7692 H   0  0  0  0  0  0
  1  2  1  0  0  0
  2  3  2  0  0  0
  2  4  1  0  0  0
  1  5  1  0  0  0
  1  6  1  0  0  0
  1  7  1  0  0  0
  4  8  1  0  0  0
  4  9  1  0  0  0
  4 10  1  0  0  0
 11 12  1  0  0  0
 12 13  1  0  0  0
 11 14  1  0  0  0
 11 15  1  0  0  0
 11 16  1  0  0  0
 12 17  1  0  0  0
 12 18  1  0  0  0
 13 19  1  0  0  0
 13 20  1  0  0  0
 13 21  1  0  0  0
M  END
$$$$
