


  6  4  0  0  1  0            999 V2000
    0.0000    0.0000    0.0000 C   0  0  0  0  0  0
   -0.3651    0.4281    1.0137 N   0  0  0  0  0  0
    0.2431   -0.5102   -0.9168 H   0  0  0  0  0  0
   -0.3503    1.3349    2.9932 O   0  0  0  0  0  0
   -1.0637    1.0778    2.3662 H   0  0  0  0  0  0
   -0.8245    1.7235    3.7628 H   0  0  0  0  0  0
  1  2  3  0  0  0
  1  3  1  0  0  0
  4  5  1  0  0  0
  4  6  1  0  0  0
M  END
$$$$
