


 26 24  0  0  1  0            999 V2000
    7.8416    0.0493   -2.5623 C   0  0  0  0  0  0
    8.0835   -0.7684   -1.3626 C   0  0  0  0  0  0
    7.3863   -0.0689    0.0675 S   0  0  0  0  0  0
    7.7060   -1.6109    1.4389 S   0  0  0  0  0  0
    9.3859   -1.3127    1.9132 C   0  0  0  0  0  0
    8.3194    1.0408   -2.4900 H   0  0  0  0  0  0
    6.7934    0.1861   -2.8773 H   0  0  0  0  0  0
    8.3668   -0.5389   -3.3335 H   0  0  0  0  0  0
    7.6301   -1.7782   -1.3579 H   0  0  0  0  0  0
    9.1711   -0.8869   -1.1939 H   0  0  0  0  0  0
    9.7658   -2.3215    2.1468 H   0  0  0  0  0  0
    9.4670   -0.6878    2.8185 H   0  0  0  0  0  0
   10.0185   -0.8725    1.1241 H   0  0  0  0  0  0
    2.1383    4.5506    0.2678 C   0  0  0  0  0  0
    3.3201    5.4237   -0.0119 C   0  0  0  0  0  0
    4.0538    5.1186   -1.6826 S   0  0  0  0  0  0
    4.9048    3.3509   -1.6221 S   0  0  0  0  0  0
    6.3380    3.5566   -0.5125 C   0  0  0  0  0  0
    1.2800    4.7665   -0.3905 H   0  0  0  0  0  0
    1.8550    4.7925    1.3060 H   0  0  0  0  0  0
    2.3658    3.4730    0.2072 H   0  0  0  0  0  0
    2.9810    6.4710    0.1051 H   0  0  0  0  0  0
    4.1643    5.2632    0.6859 H   0  0  0  0  0  0
    7.0332    4.3318   -0.8762 H   0  0  0  0  0  0
    6.8503    2.5804   -0.5472 H   0  0  0  0  0  0
    6.0785    3.7806    0.5359 H   0  0  0  0  0  0
  1  2  1  0  0  0
  2  3  1  0  0  0
  3  4  1  0  0  0
  4  5  1  0  0  0
  1  6  1  0  0  0
  1  7  1  0  0  0
  1  8  1  0  0  0
  2  9  1  0  0  0
  2 10  1  0  0  0
  5 11  1  0  0  0
  5 12  1  0  0  0
  5 13  1  0  0  0
 14 15  1  0  0  0
 15 16  1  0  0  0
 16 17  1  0  0  0
 17 18  1  0  0  0
 14 19  1  0  0  0
 14 20  1  0  0  0
 14 21  1  0  0  0
 15 22  1  0  0  0
 15 23  1  0  0  0
 18 24  1  0  0  0
 18 25  1  0  0  0
 18 26  1  0  0  0
M  END
$$$$
