


 17 15  0  0  1  0            999 V2000
    0.0000    0.0000    0.0000 C   0  0  0  0  0  0
   -1.0919   -0.6265    0.7458 N   0  0  0  0  0  0
   -0.8602   -0.5956    2.2427 C   0  0  0  0  0  0
   -2.1968   -0.8691    3.0050 C   0  0  0  0  0  0
   -3.2409   -0.1344    2.3938 O   0  0  0  0  0  0
    0.9374   -0.5643    0.1394 H   0  0  0  0  0  0
    0.1725    1.0479    0.2980 H   0  0  0  0  0  0
   -0.2681   -0.0220   -1.0697 H   0  0  0  0  0  0
   -1.2845   -1.5364    0.3078 H   0  0  0  0  0  0
   -0.0808   -1.3339    2.5127 H   0  0  0  0  0  0
   -0.4707    0.4106    2.4902 H   0  0  0  0  0  0
   -2.5343   -1.9234    3.0047 H   0  0  0  0  0  0
   -2.1757   -0.5228    4.0563 H   0  0  0  0  0  0
   -2.8193    0.0759    1.5345 H   0  0  0  0  0  0
    3.1568   -1.4833    2.3977 O   0  0  0  0  0  0
    3.0724   -0.8720    3.1641 H   0  0  0  0  0  0
    2.2600   -1.8745    2.2925 H   0  0  0  0  0  0
  1  2  1  0  0  0
  2  3  1  0  0  0
  3  4  1  0  0  0
  4  5  1  0  0  0
  1  6  1  0  0  0
  1  7  1  0  0  0
  1  8  1  0  0  0
  2  9  1  0  0  0
  3 10  1  0  0  0
  3 11  1  0  0  0
  4 12  1  0  0  0
  4 13  1  0  0  0
  5 14  1  0  0  0
 15 16  1  0  0  0
 15 17  1  0  0  0
M  END
$$$$
