


 26 26  0  0  1  0            999 V2000
   16.4487    7.0045    1.2164 O   0  0  0  0  0  0
   15.5029    7.4936    0.3763 C   0  0  0  0  0  0
   14.6384    8.4967    0.8905 C   0  0  0  0  0  0
   13.6227    9.0066    0.0324 C   0  0  0  0  0  0
   13.5519    8.6316   -1.2920 C   0  0  0  0  0  0
   14.5009    7.7192   -1.7916 C   0  0  0  0  0  0
   15.3921    7.0438   -0.9235 C   0  0  0  0  0  0
   16.4522    7.4403    2.1031 H   0  0  0  0  0  0
   14.6120    8.8218    1.9389 H   0  0  0  0  0  0
   12.8997    9.7085    0.4685 H   0  0  0  0  0  0
   12.8313    9.0710   -1.9942 H   0  0  0  0  0  0
   14.3798    7.5299   -2.8663 H   0  0  0  0  0  0
   16.0403    6.2510   -1.3196 H   0  0  0  0  0  0
   16.6610    5.3190    7.5331 O   0  0  0  0  0  0
   15.9612    5.4481    6.3434 C   0  0  0  0  0  0
   15.4755    6.7186    5.9787 C   0  0  0  0  0  0
   14.7773    6.8770    4.7855 C   0  0  0  0  0  0
   14.5435    5.8388    3.8832 C   0  0  0  0  0  0
   15.0099    4.5784    4.1478 C   0  0  0  0  0  0
   15.7646    4.3880    5.3768 C   0  0  0  0  0  0
   16.6529    4.3771    7.8312 H   0  0  0  0  0  0
   15.6628    7.4938    6.7333 H   0  0  0  0  0  0
   14.4552    7.8943    4.5266 H   0  0  0  0  0  0
   13.8616    6.0410    3.0466 H   0  0  0  0  0  0
   14.8176    3.6938    3.5264 H   0  0  0  0  0  0
   16.1214    3.3915    5.6689 H   0  0  0  0  0  0
  1  2  1  0  0  0
  2  3  2  0  0  0
  3  4  1  0  0  0
  4  5  2  0  0  0
  5  6  1  0  0  0
  6  7  2  0  0  0
  2  7  1  0  0  0
  1  8  1  0  0  0
  3  9  1  0  0  0
  4 10  1  0  0  0
  5 11  1  0  0  0
  6 12  1  0  0  0
  7 13  1  0  0  0
 14 15  1  0  0  0
 15 16  2  0  0  0
 16 17  1  0  0  0
 17 18  2  0  0  0
 18 19  1  0  0  0
 19 20  2  0  0  0
 15 20  1  0  0  0
 14 21  1  0  0  0
 16 22  1  0  0  0
 17 23  1  0  0  0
 18 24  1  0  0  0
 19 25  1  0  0  0
 20 26  1  0  0  0
M  END
$$$$
