


 26 26  0  0  1  0            999 V2000
   -8.6498    6.0728    6.6585 O   0  0  0  0  0  0
   -7.7897    7.0863    7.0099 C   0  0  0  0  0  0
   -6.6587    6.7969    7.7528 C   0  0  0  0  0  0
   -5.8100    7.8407    8.1352 C   0  0  0  0  0  0
   -6.0368    9.1788    7.7311 C   0  0  0  0  0  0
   -7.1763    9.4903    6.9622 C   0  0  0  0  0  0
   -7.9669    8.4055    6.5044 C   0  0  0  0  0  0
   -8.6158    5.2296    7.1723 H   0  0  0  0  0  0
   -6.4709    5.7888    8.1452 H   0  0  0  0  0  0
   -4.8966    7.6718    8.7207 H   0  0  0  0  0  0
   -5.3013    9.9354    8.0348 H   0  0  0  0  0  0
   -7.3346   10.5374    6.6723 H   0  0  0  0  0  0
   -8.7951    8.8070    5.9057 H   0  0  0  0  0  0
  -10.1959    7.0469    3.9823 O   0  0  0  0  0  0
  -11.4873    7.5375    3.8958 C   0  0  0  0  0  0
  -11.7495    8.4784    2.8231 C   0  0  0  0  0  0
  -13.0117    8.9226    2.6385 C   0  0  0  0  0  0
  -14.0099    8.5996    3.5675 C   0  0  0  0  0  0
  -13.7593    7.7288    4.6917 C   0  0  0  0  0  0
  -12.5163    7.2091    4.8209 C   0  0  0  0  0  0
   -9.8164    6.8272    4.8676 H   0  0  0  0  0  0
  -10.9721    8.7210    2.0867 H   0  0  0  0  0  0
  -13.3034    9.5492    1.7854 H   0  0  0  0  0  0
  -15.0104    8.9963    3.3500 H   0  0  0  0  0  0
  -14.5628    7.4433    5.3834 H   0  0  0  0  0  0
  -12.2683    6.5709    5.6792 H   0  0  0  0  0  0
  1  2  1  0  0  0
  2  3  2  0  0  0
  3  4  1  0  0  0
  4  5  2  0  0  0
  5  6  1  0  0  0
  6  7  2  0  0  0
  2  7  1  0  0  0
  1  8  1  0  0  0
  3  9  1  0  0  0
  4 10  1  0  0  0
  5 11  1  0  0  0
  6 12  1  0  0  0
  7 13  1  0  0  0
 14 15  1  0  0  0
 15 16  2  0  0  0
 16 17  1  0  0  0
 17 18  2  0  0  0
 18 19  1  0  0  0
 19 20  2  0  0  0
 15 20  1  0  0  0
 14 21  1  0  0  0
 16 22  1  0  0  0
 17 23  1  0  0  0
 18 24  1  0  0  0
 19 25  1  0  0  0
 20 26  1  0  0  0
M  END
$$$$
