


 26 26  0  0  1  0            999 V2000
    1.4470    5.1001    1.0862 O   0  0  0  0  0  0
    2.1423    3.9287    0.9212 C   0  0  0  0  0  0
    2.4498    3.5502   -0.3860 C   0  0  0  0  0  0
    3.1541    2.3707   -0.6146 C   0  0  0  0  0  0
    3.5548    1.5644    0.4521 C   0  0  0  0  0  0
    3.2442    1.9486    1.7555 C   0  0  0  0  0  0
    2.5391    3.1285    1.9935 C   0  0  0  0  0  0
    1.3005    5.2415    2.0530 H   0  0  0  0  0  0
    2.1281    4.1945   -1.2148 H   0  0  0  0  0  0
    3.3932    2.0782   -1.6456 H   0  0  0  0  0  0
    4.1099    0.6354    0.2667 H   0  0  0  0  0  0
    3.5528    1.3245    2.6046 H   0  0  0  0  0  0
    2.2952    3.4297    3.0208 H   0  0  0  0  0  0
   -0.6608    3.4518    2.3739 O   0  0  0  0  0  0
   -0.2486    2.1646    2.1375 C   0  0  0  0  0  0
   -0.0513    1.3454    3.2496 C   0  0  0  0  0  0
    0.3670    0.0291    3.0707 C   0  0  0  0  0  0
    0.5904   -0.4774    1.7893 C   0  0  0  0  0  0
    0.3914    0.3464    0.6827 C   0  0  0  0  0  0
   -0.0275    1.6662    0.8529 C   0  0  0  0  0  0
   -0.7589    3.9116    1.5049 H   0  0  0  0  0  0
   -0.2310    1.7578    4.2512 H   0  0  0  0  0  0
    0.5206   -0.6107    3.9498 H   0  0  0  0  0  0
    0.9201   -1.5159    1.6536 H   0  0  0  0  0  0
    0.5631   -0.0382   -0.3313 H   0  0  0  0  0  0
   -0.1839    2.3138   -0.0199 H   0  0  0  0  0  0
  1  2  1  0  0  0
  2  3  2  0  0  0
  3  4  1  0  0  0
  4  5  2  0  0  0
  5  6  1  0  0  0
  6  7  2  0  0  0
  2  7  1  0  0  0
  1  8  1  0  0  0
  3  9  1  0  0  0
  4 10  1  0  0  0
  5 11  1  0  0  0
  6 12  1  0  0  0
  7 13  1  0  0  0
 14 15  1  0  0  0
 15 16  2  0  0  0
 16 17  1  0  0  0
 17 18  2  0  0  0
 18 19  1  0  0  0
 19 20  2  0  0  0
 15 20  1  0  0  0
 14 21  1  0  0  0
 16 22  1  0  0  0
 17 23  1  0  0  0
 18 24  1  0  0  0
 19 25  1  0  0  0
 20 26  1  0  0  0
M  END
$$$$
