


 26 26  0  0  1  0            999 V2000
    0.0000    0.0000    0.0000 O   0  0  0  0  0  0
   -0.6130   -0.9113   -0.8119 C   0  0  0  0  0  0
   -0.1796   -1.0700   -2.1981 C   0  0  0  0  0  0
   -0.8487   -2.0363   -2.9957 C   0  0  0  0  0  0
   -1.7169   -2.9535   -2.3630 C   0  0  0  0  0  0
   -1.8646   -2.9555   -0.9573 C   0  0  0  0  0  0
   -1.4166   -1.8824   -0.2568 C   0  0  0  0  0  0
    0.8608    0.4470   -0.1878 H   0  0  0  0  0  0
    0.4988   -0.3485   -2.6724 H   0  0  0  0  0  0
   -0.6718   -2.1392   -4.0744 H   0  0  0  0  0  0
   -2.0754   -3.7480   -3.0307 H   0  0  0  0  0  0
   -2.5042   -3.6768   -0.4316 H   0  0  0  0  0  0
   -1.6132   -1.8875    0.8235 H   0  0  0  0  0  0
   -2.0814    1.4934    0.8527 O   0  0  0  0  0  0
   -1.8457    2.7629    0.3735 C   0  0  0  0  0  0
   -2.1779    3.8859    1.1730 C   0  0  0  0  0  0
   -1.5722    5.1121    0.9248 C   0  0  0  0  0  0
   -0.7056    5.2062   -0.2179 C   0  0  0  0  0  0
   -0.4419    4.0803   -1.0233 C   0  0  0  0  0  0
   -1.1216    2.8761   -0.8318 C   0  0  0  0  0  0
   -1.4864    0.8263    0.4319 H   0  0  0  0  0  0
   -2.7613    3.8632    2.1029 H   0  0  0  0  0  0
   -1.8089    5.9605    1.5805 H   0  0  0  0  0  0
   -0.2608    6.1680   -0.5052 H   0  0  0  0  0  0
    0.1758    4.2795   -1.9089 H   0  0  0  0  0  0
   -0.7284    2.0604   -1.4528 H   0  0  0  0  0  0
  1  2  1  0  0  0
  2  3  2  0  0  0
  3  4  1  0  0  0
  4  5  2  0  0  0
  5  6  1  0  0  0
  6  7  2  0  0  0
  2  7  1  0  0  0
  1  8  1  0  0  0
  3  9  1  0  0  0
  4 10  1  0  0  0
  5 11  1  0  0  0
  6 12  1  0  0  0
  7 13  1  0  0  0
 14 15  1  0  0  0
 15 16  2  0  0  0
 16 17  1  0  0  0
 17 18  2  0  0  0
 18 19  1  0  0  0
 19 20  2  0  0  0
 15 20  1  0  0  0
 14 21  1  0  0  0
 16 22  1  0  0  0
 17 23  1  0  0  0
 18 24  1  0  0  0
 19 25  1  0  0  0
 20 26  1  0  0  0
M  END
$$$$
