


 26 26  0  0  1  0            999 V2000
    0.0000    0.0000    0.0000 O   0  0  0  0  0  0
   -0.0534   -0.4869   -1.2898 C   0  0  0  0  0  0
   -0.0270   -1.9123   -1.4199 C   0  0  0  0  0  0
   -0.0391   -2.4950   -2.6931 C   0  0  0  0  0  0
    0.1713   -1.6110   -3.8429 C   0  0  0  0  0  0
    0.1390   -0.1915   -3.6748 C   0  0  0  0  0  0
   -0.0491    0.3762   -2.3887 C   0  0  0  0  0  0
    0.4672   -0.6437    0.5862 H   0  0  0  0  0  0
    0.0303   -2.5121   -0.5020 H   0  0  0  0  0  0
   -0.0200   -3.5876   -2.8005 H   0  0  0  0  0  0
    0.2856   -2.1920   -4.7676 H   0  0  0  0  0  0
    0.1180    0.5317   -4.5007 H   0  0  0  0  0  0
   -0.1389    1.4482   -2.1689 H   0  0  0  0  0  0
   -3.3854   -0.5529   -8.0748 O   0  0  0  0  0  0
   -2.8369   -1.5851   -7.3221 C   0  0  0  0  0  0
   -3.4933   -2.7733   -7.0013 C   0  0  0  0  0  0
   -2.8592   -3.8545   -6.3317 C   0  0  0  0  0  0
   -1.5507   -3.6199   -5.8168 C   0  0  0  0  0  0
   -0.8367   -2.4310   -6.0662 C   0  0  0  0  0  0
   -1.5150   -1.3377   -6.7528 C   0  0  0  0  0  0
   -2.7983    0.1401   -8.4637 H   0  0  0  0  0  0
   -4.5428   -2.9051   -7.2958 H   0  0  0  0  0  0
   -3.4244   -4.7533   -6.0519 H   0  0  0  0  0  0
   -1.1972   -4.4134   -5.1452 H   0  0  0  0  0  0
    0.2016   -2.3443   -5.7197 H   0  0  0  0  0  0
   -1.0756   -0.3501   -6.9458 H   0  0  0  0  0  0
  1  2  1  0  0  0
  2  3  2  0  0  0
  3  4  1  0  0  0
  4  5  2  0  0  0
  5  6  1  0  0  0
  6  7  2  0  0  0
  2  7  1  0  0  0
  1  8  1  0  0  0
  3  9  1  0  0  0
  4 10  1  0  0  0
  5 11  1  0  0  0
  6 12  1  0  0  0
  7 13  1  0  0  0
 14 15  1  0  0  0
 15 16  2  0  0  0
 16 17  1  0  0  0
 17 18  2  0  0  0
 18 19  1  0  0  0
 19 20  2  0  0  0
 15 20  1  0  0  0
 14 21  1  0  0  0
 16 22  1  0  0  0
 17 23  1  0  0  0
 18 24  1  0  0  0
 19 25  1  0  0  0
 20 26  1  0  0  0
M  END
$$$$
