


 24 23  0  0  1  0            999 V2000
    1.0906    1.3753    2.8254 C   0  0  0  0  0  0
   -0.3823    1.0886    3.1919 C   0  0  0  0  0  0
   -0.9352    0.3291    1.9592 C   0  0  0  0  0  0
    0.2708    0.2489    0.9972 C   0  0  0  0  0  0
    1.4820    0.3787    1.8190 N   0  0  0  0  0  0
    1.7781    1.3474    3.6925 H   0  0  0  0  0  0
    1.1797    2.3745    2.3572 H   0  0  0  0  0  0
   -0.4351    0.4530    4.0968 H   0  0  0  0  0  0
   -0.9442    2.0192    3.4011 H   0  0  0  0  0  0
   -1.7980    0.8462    1.4970 H   0  0  0  0  0  0
   -1.2658   -0.6881    2.2444 H   0  0  0  0  0  0
    0.2536    1.1020    0.2919 H   0  0  0  0  0  0
    0.3011   -0.6819    0.3988 H   0  0  0  0  0  0
    1.6390   -0.5162    2.2999 H   0  0  0  0  0  0
    4.3550    2.8589    0.6020 C   0  0  0  0  0  0
    3.2469    2.6945   -0.4125 C   0  0  0  0  0  0
    2.2585    3.4099   -0.4100 O   0  0  0  0  0  0
    3.4335    1.5930   -1.4303 C   0  0  0  0  0  0
    4.1256    3.6888    1.2915 H   0  0  0  0  0  0
    5.3096    3.0770    0.0944 H   0  0  0  0  0  0
    4.4732    1.9342    1.1916 H   0  0  0  0  0  0
    4.3468    1.7710   -2.0225 H   0  0  0  0  0  0
    3.5262    0.6168   -0.9253 H   0  0  0  0  0  0
    2.5712    1.5534   -2.1170 H   0  0  0  0  0  0
  1  2  1  0  0  0
  2  3  1  0  0  0
  3  4  1  0  0  0
  4  5  1  0  0  0
  1  5  1  0  0  0
  1  6  1  0  0  0
  1  7  1  0  0  0
  2  8  1  0  0  0
  2  9  1  0  0  0
  3 10  1  0  0  0
  3 11  1  0  0  0
  4 12  1  0  0  0
  4 13  1  0  0  0
  5 14  1  0  0  0
 15 16  1  0  0  0
 16 17  2  0  0  0
 16 18  1  0  0  0
 15 19  1  0  0  0
 15 20  1  0  0  0
 15 21  1  0  0  0
 18 22  1  0  0  0
 18 23  1  0  0  0
 18 24  1  0  0  0
M  END
$$$$
