


 15 13  0  0  1  0            999 V2000
    4.1397    2.7876    1.5789 C   0  0  0  0  0  0
    3.0743    1.8813    2.1972 C   0  0  0  0  0  0
    2.0000    2.5732    2.9112 N   0  0  0  0  0  0
    3.6777    3.4733    0.8488 H   0  0  0  0  0  0
    4.9088    2.1894    1.0619 H   0  0  0  0  0  0
    4.6297    3.3879    2.3639 H   0  0  0  0  0  0
    2.6038    1.2721    1.4016 H   0  0  0  0  0  0
    3.5538    1.1869    2.9137 H   0  0  0  0  0  0
    1.5242    3.2248    2.2774 H   0  0  0  0  0  0
    2.3957    3.1466    3.6644 H   0  0  0  0  0  0
   -2.1861    0.0451   -0.2310 C   0  0  0  0  0  0
   -1.8098    1.5152   -1.6958 I   0  0  0  0  0  0
   -3.2644   -0.0021   -0.0036 H   0  0  0  0  0  0
   -1.6406    0.2814    0.6980 H   0  0  0  0  0  0
   -1.8584   -0.9453   -0.5892 H   0  0  0  0  0  0
  1  2  1  0  0  0
  2  3  1  0  0  0
  1  4  1  0  0  0
  1  5  1  0  0  0
  1  6  1  0  0  0
  2  7  1  0  0  0
  2  8  1  0  0  0
  3  9  1  0  0  0
  3 10  1  0  0  0
 11 12  1  0  0  0
 11 13  1  0  0  0
 11 14  1  0  0  0
 11 15  1  0  0  0
M  END
$$$$
