


 16 15  0  0  1  0            999 V2000
    0.0000    0.0000    0.0000 C   0  0  0  0  0  0
    1.3173   -0.6521    0.3998 C   0  0  0  0  0  0
    1.8209   -0.9082   -0.9577 C   0  0  0  0  0  0
    0.5572   -1.3701   -1.6276 C   0  0  0  0  0  0
   -0.5392   -0.6288   -1.1071 O   0  0  0  0  0  0
    0.3087    1.0317   -0.2563 H   0  0  0  0  0  0
   -0.6274    0.0528    0.9105 H   0  0  0  0  0  0
    1.9414   -0.0584    1.0951 H   0  0  0  0  0  0
    1.0759   -1.6103    0.8988 H   0  0  0  0  0  0
    2.6251   -1.6662   -0.8942 H   0  0  0  0  0  0
    2.2411   -0.0124   -1.4542 H   0  0  0  0  0  0
    0.4129   -2.4081   -1.2708 H   0  0  0  0  0  0
    0.7068   -1.4088   -2.7238 H   0  0  0  0  0  0
   -5.5526   -0.9713   -5.7036 O   0  0  0  0  0  0
   -4.7802   -0.8612   -5.1039 H   0  0  0  0  0  0
   -5.4101   -0.3076   -6.4159 H   0  0  0  0  0  0
  1  2  1  0  0  0
  2  3  1  0  0  0
  3  4  1  0  0  0
  4  5  1  0  0  0
  1  5  1  0  0  0
  1  6  1  0  0  0
  1  7  1  0  0  0
  2  8  1  0  0  0
  2  9  1  0  0  0
  3 10  1  0  0  0
  3 11  1  0  0  0
  4 12  1  0  0  0
  4 13  1  0  0  0
 14 15  1  0  0  0
 14 16  1  0  0  0
M  END
$$$$
