


 28 26  0  0  1  0            999 V2000
    0.0000    0.0000    0.0000 C   0  0  0  0  0  0
   -0.8866    1.0703    0.5830 C   0  0  0  0  0  0
   -2.3024    0.5839    0.8576 C   0  0  0  0  0  0
   -0.3607    1.6778    1.8773 C   0  0  0  0  0  0
   -0.1944   -0.2521   -1.0561 H   0  0  0  0  0  0
   -0.0742   -0.9218    0.6012 H   0  0  0  0  0  0
    1.0270    0.3934    0.0845 H   0  0  0  0  0  0
   -0.9853    1.9467   -0.0894 H   0  0  0  0  0  0
   -2.1810   -0.4019    1.3372 H   0  0  0  0  0  0
   -2.9034    0.4578   -0.0586 H   0  0  0  0  0  0
   -2.8497    1.2465    1.5490 H   0  0  0  0  0  0
   -0.9319    2.5100    2.3220 H   0  0  0  0  0  0
    0.6460    2.0432    1.6136 H   0  0  0  0  0  0
   -0.2588    0.8788    2.6309 H   0  0  0  0  0  0
   -1.1600   -4.8766   -2.3337 C   0  0  0  0  0  0
   -2.0299   -3.7039   -1.7479 C   0  0  0  0  0  0
   -1.7794   -2.3958   -2.3983 C   0  0  0  0  0  0
   -3.5143   -4.0071   -1.7865 C   0  0  0  0  0  0
   -1.6205   -5.2610   -3.2594 H   0  0  0  0  0  0
   -1.1252   -5.6930   -1.5928 H   0  0  0  0  0  0
   -0.1272   -4.5618   -2.5590 H   0  0  0  0  0  0
   -1.6767   -3.6286   -0.6993 H   0  0  0  0  0  0
   -2.0129   -2.5701   -3.4620 H   0  0  0  0  0  0
   -0.7177   -2.1091   -2.3135 H   0  0  0  0  0  0
   -2.3998   -1.5595   -2.0344 H   0  0  0  0  0  0
   -4.1651   -3.4071   -1.1284 H   0  0  0  0  0  0
   -3.6711   -5.0747   -1.5578 H   0  0  0  0  0  0
   -3.8087   -3.8246   -2.8337 H   0  0  0  0  0  0
  1  2  1  0  0  0
  2  3  1  0  0  0
  2  4  1  0  0  0
  1  5  1  0  0  0
  1  6  1  0  0  0
  1  7  1  0  0  0
  2  8  1  0  0  0
  3  9  1  0  0  0
  3 10  1  0  0  0
  3 11  1  0  0  0
  4 12  1  0  0  0
  4 13  1  0  0  0
  4 14  1  0  0  0
 15 16  1  0  0  0
 16 17  1  0  0  0
 16 18  1  0  0  0
 15 19  1  0  0  0
 15 20  1  0  0  0
 15 21  1  0  0  0
 16 22  1  0  0  0
 17 23  1  0  0  0
 17 24  1  0  0  0
 17 25  1  0  0  0
 18 26  1  0  0  0
 18 27  1  0  0  0
 18 28  1  0  0  0
M  END
$$$$
