


 28 26  0  0  1  0            999 V2000
    0.0000    0.0000    0.0000 C   0  0  0  0  0  0
    1.1862   -0.6528   -0.7407 C   0  0  0  0  0  0
    1.9981   -1.4574    0.2214 C   0  0  0  0  0  0
    0.7821   -1.4052   -1.9543 C   0  0  0  0  0  0
   -0.5979    0.6392   -0.6713 H   0  0  0  0  0  0
    0.3645    0.6156    0.8395 H   0  0  0  0  0  0
   -0.6516   -0.7937    0.4027 H   0  0  0  0  0  0
    1.9107    0.1383   -1.0220 H   0  0  0  0  0  0
    1.6932   -2.4703    0.5338 H   0  0  0  0  0  0
    2.0628   -0.8174    1.1174 H   0  0  0  0  0  0
    2.9978   -1.5177   -0.2408 H   0  0  0  0  0  0
    0.0986   -2.2337   -1.7034 H   0  0  0  0  0  0
    1.7154   -1.8299   -2.3609 H   0  0  0  0  0  0
    0.3100   -0.7833   -2.7333 H   0  0  0  0  0  0
    4.7487   -6.0458   -0.6167 C   0  0  0  0  0  0
    4.3334   -5.3525   -1.9250 C   0  0  0  0  0  0
    3.2168   -6.1201   -2.6137 C   0  0  0  0  0  0
    3.8300   -3.9400   -1.6685 C   0  0  0  0  0  0
    3.7743   -6.3156   -0.1760 H   0  0  0  0  0  0
    5.2995   -5.4187    0.1044 H   0  0  0  0  0  0
    5.3245   -6.9704   -0.7904 H   0  0  0  0  0  0
    5.2600   -5.2854   -2.5308 H   0  0  0  0  0  0
    2.2278   -6.1962   -2.1311 H   0  0  0  0  0  0
    3.5947   -7.1387   -2.8040 H   0  0  0  0  0  0
    3.0976   -5.6027   -3.5804 H   0  0  0  0  0  0
    4.6223   -3.2930   -1.2559 H   0  0  0  0  0  0
    3.0135   -4.0107   -0.9303 H   0  0  0  0  0  0
    3.4354   -3.4716   -2.5858 H   0  0  0  0  0  0
  1  2  1  0  0  0
  2  3  1  0  0  0
  2  4  1  0  0  0
  1  5  1  0  0  0
  1  6  1  0  0  0
  1  7  1  0  0  0
  2  8  1  0  0  0
  3  9  1  0  0  0
  3 10  1  0  0  0
  3 11  1  0  0  0
  4 12  1  0  0  0
  4 13  1  0  0  0
  4 14  1  0  0  0
 15 16  1  0  0  0
 16 17  1  0  0  0
 16 18  1  0  0  0
 15 19  1  0  0  0
 15 20  1  0  0  0
 15 21  1  0  0  0
 16 22  1  0  0  0
 17 23  1  0  0  0
 17 24  1  0  0  0
 17 25  1  0  0  0
 18 26  1  0  0  0
 18 27  1  0  0  0
 18 28  1  0  0  0
M  END
$$$$
