


 28 26  0  0  1  0            999 V2000
    0.0000    0.0000    0.0000 C   0  0  0  0  0  0
    0.4383    0.5878    1.3450 C   0  0  0  0  0  0
    1.0148    2.0156    1.1760 C   0  0  0  0  0  0
   -0.6305    0.5112    2.4857 C   0  0  0  0  0  0
    0.9100   -0.0413   -0.6220 H   0  0  0  0  0  0
   -0.7523    0.6185   -0.5178 H   0  0  0  0  0  0
   -0.3991   -1.0226    0.1079 H   0  0  0  0  0  0
    1.3805    0.0854    1.6447 H   0  0  0  0  0  0
    1.7722    2.0628    0.3754 H   0  0  0  0  0  0
    1.5123    2.2032    2.1424 H   0  0  0  0  0  0
    0.2703    2.8109    1.0033 H   0  0  0  0  0  0
   -0.9878   -0.5263    2.5972 H   0  0  0  0  0  0
   -1.4862    1.1504    2.2102 H   0  0  0  0  0  0
   -0.2342    0.8531    3.4567 H   0  0  0  0  0  0
    7.5471    4.6884    4.6946 C   0  0  0  0  0  0
    7.2971    3.2421    5.1434 C   0  0  0  0  0  0
    7.6494    2.1955    4.1063 C   0  0  0  0  0  0
    7.9993    3.0508    6.5063 C   0  0  0  0  0  0
    8.5630    4.7957    4.2787 H   0  0  0  0  0  0
    7.4128    5.4377    5.4928 H   0  0  0  0  0  0
    6.8160    4.8922    3.8942 H   0  0  0  0  0  0
    6.1946    3.1812    5.2462 H   0  0  0  0  0  0
    7.6999    1.1544    4.4668 H   0  0  0  0  0  0
    8.6460    2.4879    3.7348 H   0  0  0  0  0  0
    6.9337    2.2434    3.2684 H   0  0  0  0  0  0
    7.6207    3.7173    7.2994 H   0  0  0  0  0  0
    9.0795    3.2337    6.3791 H   0  0  0  0  0  0
    7.8548    2.0053    6.8267 H   0  0  0  0  0  0
  1  2  1  0  0  0
  2  3  1  0  0  0
  2  4  1  0  0  0
  1  5  1  0  0  0
  1  6  1  0  0  0
  1  7  1  0  0  0
  2  8  1  0  0  0
  3  9  1  0  0  0
  3 10  1  0  0  0
  3 11  1  0  0  0
  4 12  1  0  0  0
  4 13  1  0  0  0
  4 14  1  0  0  0
 15 16  1  0  0  0
 16 17  1  0  0  0
 16 18  1  0  0  0
 15 19  1  0  0  0
 15 20  1  0  0  0
 15 21  1  0  0  0
 16 22  1  0  0  0
 17 23  1  0  0  0
 17 24  1  0  0  0
 17 25  1  0  0  0
 18 26  1  0  0  0
 18 27  1  0  0  0
 18 28  1  0  0  0
M  END
$$$$
