


 13 11  0  0  1  0            999 V2000
    0.3525    3.0905   -0.1330 C   0  0  0  0  0  0
    0.4363    2.0423    0.9360 C   0  0  0  0  0  0
    1.4322    1.4427    1.2749 O   0  0  0  0  0  0
   -0.7775    1.8281    1.5084 O   0  0  0  0  0  0
    1.3446    3.2524   -0.5871 H   0  0  0  0  0  0
    0.0001    4.0453    0.2922 H   0  0  0  0  0  0
   -0.3496    2.7772   -0.9239 H   0  0  0  0  0  0
   -0.6236    1.1252    2.1971 H   0  0  0  0  0  0
    1.8681   -0.3406    3.0162 O   0  0  0  0  0  0
    0.6633   -0.5516    3.5817 C   0  0  0  0  0  0
   -0.3562    0.0161    3.2786 O   0  0  0  0  0  0
    1.7277    0.3600    2.3224 H   0  0  0  0  0  0
    0.7535   -1.3269    4.3680 H   0  0  0  0  0  0
  1  2  1  0  0  0
  2  3  2  0  0  0
  2  4  1  0  0  0
  1  5  1  0  0  0
  1  6  1  0  0  0
  1  7  1  0  0  0
  4  8  1  0  0  0
  9 10  1  0  0  0
 10 11  2  0  0  0
  9 12  1  0  0  0
 10 13  1  0  0  0
M  END
$$$$
