


 19 17  0  0  1  0            999 V2000
    0.0590    1.7555    3.3039 C   0  0  0  0  0  0
    0.4144    3.1714    2.8777 C   0  0  0  0  0  0
    0.8111    3.1785    1.4640 N   0  0  0  0  0  0
   -0.7513    1.3623    2.6671 H   0  0  0  0  0  0
   -0.2784    1.7375    4.3538 H   0  0  0  0  0  0
    0.9364    1.0945    3.2049 H   0  0  0  0  0  0
   -0.4774    3.8204    2.9727 H   0  0  0  0  0  0
    1.1952    3.5714    3.5528 H   0  0  0  0  0  0
    1.0554    4.1296    1.1669 H   0  0  0  0  0  0
    1.6601    2.6154    1.3424 H   0  0  0  0  0  0
    1.9543   -0.5413    0.2138 C   0  0  0  0  0  0
    3.0091    0.1973    0.7975 O   0  0  0  0  0  0
    4.1105   -0.6447    1.0741 C   0  0  0  0  0  0
    1.1235    0.1574    0.0183 H   0  0  0  0  0  0
    1.5939   -1.3368    0.8875 H   0  0  0  0  0  0
    2.2598   -1.0007   -0.7413 H   0  0  0  0  0  0
    3.8422   -1.4446    1.7845 H   0  0  0  0  0  0
    4.5082   -1.1086    0.1558 H   0  0  0  0  0  0
    4.9024   -0.0239    1.5260 H   0  0  0  0  0  0
  1  2  1  0  0  0
  2  3  1  0  0  0
  1  4  1  0  0  0
  1  5  1  0  0  0
  1  6  1  0  0  0
  2  7  1  0  0  0
  2  8  1  0  0  0
  3  9  1  0  0  0
  3 10  1  0  0  0
 11 12  1  0  0  0
 12 13  1  0  0  0
 11 14  1  0  0  0
 11 15  1  0  0  0
 11 16  1  0  0  0
 13 17  1  0  0  0
 13 18  1  0  0  0
 13 19  1  0  0  0
M  END
$$$$
