


 21 19  0  0  1  0            999 V2000
    1.4329   -0.7618    1.1422 C   0  0  0  0  0  0
    1.0260    0.1231   -0.0134 C   0  0  0  0  0  0
    1.8297    0.5033   -0.8491 O   0  0  0  0  0  0
   -0.4336    0.5102   -0.0745 C   0  0  0  0  0  0
    2.5109   -0.9897    1.0914 H   0  0  0  0  0  0
    0.8710   -1.7105    1.1142 H   0  0  0  0  0  0
    1.2247   -0.2577    2.1009 H   0  0  0  0  0  0
   -1.0643   -0.3906   -0.1610 H   0  0  0  0  0  0
   -0.7235    1.0562    0.8391 H   0  0  0  0  0  0
   -0.6239    1.1579   -0.9467 H   0  0  0  0  0  0
   -0.4542    4.7833    0.2401 C   0  0  0  0  0  0
    0.9749    4.8148    0.3517 O   0  0  0  0  0  0
    1.7406    3.4292    0.3792 P   0  0  0  0  0  0
    1.2849    2.4219    1.3510 O   0  0  0  0  0  0
    3.2498    3.9107    0.5400 O   0  0  0  0  0  0
    1.6608    2.9821   -1.1526 O   0  0  0  0  0  0
   -0.8215    5.8167    0.3581 H   0  0  0  0  0  0
   -0.9120    4.1556    1.0231 H   0  0  0  0  0  0
   -0.7751    4.4063   -0.7455 H   0  0  0  0  0  0
    3.5528    3.7518    1.4744 H   0  0  0  0  0  0
    1.7302    1.9919   -1.2207 H   0  0  0  0  0  0
  1  2  1  0  0  0
  2  3  2  0  0  0
  2  4  1  0  0  0
  1  5  1  0  0  0
  1  6  1  0  0  0
  1  7  1  0  0  0
  4  8  1  0  0  0
  4  9  1  0  0  0
  4 10  1  0  0  0
 11 12  1  0  0  0
 12 13  1  0  0  0
 13 14  2  0  0  0
 13 15  1  0  0  0
 13 16  1  0  0  0
 11 17  1  0  0  0
 11 18  1  0  0  0
 11 19  1  0  0  0
 15 20  1  0  0  0
 16 21  1  0  0  0
M  END
$$$$
