


 12 10  0  0  1  0            999 V2000
    2.4581    2.0246   -1.1974 C   0  0  0  0  0  0
    2.2357    1.2147   -2.2798 O   0  0  0  0  0  0
    2.8487    1.5244   -0.2952 H   0  0  0  0  0  0
    1.5702    2.6153   -0.9155 H   0  0  0  0  0  0
    3.2307    2.7120   -1.5809 H   0  0  0  0  0  0
    2.6117    1.5932   -3.1019 H   0  0  0  0  0  0
   -5.6466    2.3011    2.8253 C   0  0  0  0  0  0
   -5.2438    2.0134    1.4741 O   0  0  0  0  0  0
   -6.6381    2.7841    2.8370 H   0  0  0  0  0  0
   -4.9262    2.9643    3.3330 H   0  0  0  0  0  0
   -5.7098    1.3542    3.3874 H   0  0  0  0  0  0
   -4.5522    1.3190    1.4698 H   0  0  0  0  0  0
  1  2  1  0  0  0
  1  3  1  0  0  0
  1  4  1  0  0  0
  1  5  1  0  0  0
  2  6  1  0  0  0
  7  8  1  0  0  0
  7  9  1  0  0  0
  7 10  1  0  0  0
  7 11  1  0  0  0
  8 12  1  0  0  0
M  END
$$$$
