


 12 10  0  0  1  0            999 V2000
    0.9330    2.6846   -0.3060 C   0  0  0  0  0  0
    1.5092    1.4631    0.1460 O   0  0  0  0  0  0
    0.6725    3.2629    0.5964 H   0  0  0  0  0  0
    0.0152    2.5189   -0.8949 H   0  0  0  0  0  0
    1.6379    3.2777   -0.9126 H   0  0  0  0  0  0
    1.7482    0.9334   -0.6432 H   0  0  0  0  0  0
   -0.8233   -0.3382    3.9099 C   0  0  0  0  0  0
   -1.2849   -0.1353    2.5779 O   0  0  0  0  0  0
   -1.6985   -0.6549    4.5018 H   0  0  0  0  0  0
   -0.4139    0.5849    4.3535 H   0  0  0  0  0  0
   -0.0549   -1.1274    3.9683 H   0  0  0  0  0  0
   -0.5199    0.1473    2.0345 H   0  0  0  0  0  0
  1  2  1  0  0  0
  1  3  1  0  0  0
  1  4  1  0  0  0
  1  5  1  0  0  0
  2  6  1  0  0  0
  7  8  1  0  0  0
  7  9  1  0  0  0
  7 10  1  0  0  0
  7 11  1  0  0  0
  8 12  1  0  0  0
M  END
$$$$
