


 12 10  0  0  1  0            999 V2000
    1.5372   -4.7862   -1.8941 C   0  0  0  0  0  0
    1.1112   -4.0033   -0.8433 O   0  0  0  0  0  0
    0.6987   -5.3385   -2.3506 H   0  0  0  0  0  0
    2.2755   -5.5148   -1.5189 H   0  0  0  0  0  0
    2.0166   -4.1683   -2.6719 H   0  0  0  0  0  0
    0.1389   -3.9140   -0.9273 H   0  0  0  0  0  0
    0.4158    3.8486   -5.7273 C   0  0  0  0  0  0
   -0.5523    2.9380   -5.2392 O   0  0  0  0  0  0
    0.9993    4.1758   -4.8503 H   0  0  0  0  0  0
    0.0807    4.7421   -6.2803 H   0  0  0  0  0  0
    1.0722    3.2537   -6.3845 H   0  0  0  0  0  0
   -1.0074    3.4717   -4.5548 H   0  0  0  0  0  0
  1  2  1  0  0  0
  1  3  1  0  0  0
  1  4  1  0  0  0
  1  5  1  0  0  0
  2  6  1  0  0  0
  7  8  1  0  0  0
  7  9  1  0  0  0
  7 10  1  0  0  0
  7 11  1  0  0  0
  8 12  1  0  0  0
M  END
$$$$
