


 12 10  0  0  1  0            999 V2000
   -3.1205    1.3528    1.5883 C   0  0  0  0  0  0
   -3.8378    1.3547    0.3463 O   0  0  0  0  0  0
   -2.0774    1.0309    1.4303 H   0  0  0  0  0  0
   -3.5986    0.6597    2.3008 H   0  0  0  0  0  0
   -3.1136    2.3630    2.0311 H   0  0  0  0  0  0
   -4.0281    0.4347    0.0677 H   0  0  0  0  0  0
   -1.7051   -5.6372   -0.4565 C   0  0  0  0  0  0
   -3.0404   -5.7683    0.0930 O   0  0  0  0  0  0
   -1.7986   -5.1620   -1.4476 H   0  0  0  0  0  0
   -1.0777   -6.5388   -0.5564 H   0  0  0  0  0  0
   -1.2014   -4.9319    0.2257 H   0  0  0  0  0  0
   -3.1935   -6.6279    0.5381 H   0  0  0  0  0  0
  1  2  1  0  0  0
  1  3  1  0  0  0
  1  4  1  0  0  0
  1  5  1  0  0  0
  2  6  1  0  0  0
  7  8  1  0  0  0
  7  9  1  0  0  0
  7 10  1  0  0  0
  7 11  1  0  0  0
  8 12  1  0  0  0
M  END
$$$$
