


 12 10  0  0  1  0            999 V2000
    0.0000    0.0000    0.0000 C   0  0  0  0  0  0
   -0.8290   -1.0768   -0.0373 O   0  0  0  0  0  0
    0.0058    0.4984   -0.9839 H   0  0  0  0  0  0
    0.9919   -0.4507    0.1720 H   0  0  0  0  0  0
   -0.1808    0.7602    0.7784 H   0  0  0  0  0  0
   -0.5249   -1.7034   -0.7267 H   0  0  0  0  0  0
   -4.5541   -4.7496   -1.6553 C   0  0  0  0  0  0
   -5.3787   -5.3374   -2.6218 O   0  0  0  0  0  0
   -4.5137   -5.4903   -0.8390 H   0  0  0  0  0  0
   -4.9626   -3.8066   -1.2548 H   0  0  0  0  0  0
   -3.5274   -4.5643   -2.0134 H   0  0  0  0  0  0
   -4.9543   -6.2035   -2.7957 H   0  0  0  0  0  0
  1  2  1  0  0  0
  1  3  1  0  0  0
  1  4  1  0  0  0
  1  5  1  0  0  0
  2  6  1  0  0  0
  7  8  1  0  0  0
  7  9  1  0  0  0
  7 10  1  0  0  0
  7 11  1  0  0  0
  8 12  1  0  0  0
M  END
$$$$
