


 12 10  0  0  1  0            999 V2000
   -2.6670  -10.0970    1.7270 C   0  0  0  0  0  0
   -3.4730   -9.0588    1.2229 O   0  0  0  0  0  0
   -3.1767  -10.4551    2.6372 H   0  0  0  0  0  0
   -1.6237   -9.8471    1.9833 H   0  0  0  0  0  0
   -2.6612  -10.9117    0.9835 H   0  0  0  0  0  0
   -3.1173   -8.1509    1.3204 H   0  0  0  0  0  0
    1.0725   -7.4156    2.5911 C   0  0  0  0  0  0
    2.1970   -7.7669    1.7925 O   0  0  0  0  0  0
    0.3872   -8.2749    2.4981 H   0  0  0  0  0  0
    0.5116   -6.4925    2.3676 H   0  0  0  0  0  0
    1.4336   -7.3646    3.6321 H   0  0  0  0  0  0
    2.4128   -8.7164    1.9027 H   0  0  0  0  0  0
  1  2  1  0  0  0
  1  3  1  0  0  0
  1  4  1  0  0  0
  1  5  1  0  0  0
  2  6  1  0  0  0
  7  8  1  0  0  0
  7  9  1  0  0  0
  7 10  1  0  0  0
  7 11  1  0  0  0
  8 12  1  0  0  0
M  END
$$$$
