


 12 10  0  0  1  0            999 V2000
   -5.3988   -0.4957   -1.8480 C   0  0  0  0  0  0
   -5.4908    0.1363   -0.6242 O   0  0  0  0  0  0
   -4.3660   -0.4594   -2.2334 H   0  0  0  0  0  0
   -6.0501    0.0732   -2.5328 H   0  0  0  0  0  0
   -5.7333   -1.5467   -1.8362 H   0  0  0  0  0  0
   -6.0775    0.9063   -0.7767 H   0  0  0  0  0  0
   -0.5358    6.4781    0.0766 C   0  0  0  0  0  0
   -1.8460    5.9285    0.3452 O   0  0  0  0  0  0
    0.0485    6.4733    1.0120 H   0  0  0  0  0  0
   -0.4792    7.4857   -0.3685 H   0  0  0  0  0  0
   -0.0827    5.7576   -0.6250 H   0  0  0  0  0  0
   -2.2517    6.5534    0.9819 H   0  0  0  0  0  0
  1  2  1  0  0  0
  1  3  1  0  0  0
  1  4  1  0  0  0
  1  5  1  0  0  0
  2  6  1  0  0  0
  7  8  1  0  0  0
  7  9  1  0  0  0
  7 10  1  0  0  0
  7 11  1  0  0  0
  8 12  1  0  0  0
M  END
$$$$
