


 12 10  0  0  1  0            999 V2000
   -0.0250    1.3357    3.7425 C   0  0  0  0  0  0
   -1.1567    0.4788    3.5757 O   0  0  0  0  0  0
   -0.2269    2.4141    3.6291 H   0  0  0  0  0  0
    0.7628    1.0480    3.0262 H   0  0  0  0  0  0
    0.3455    1.1528    4.7652 H   0  0  0  0  0  0
   -1.7766    0.4763    4.3348 H   0  0  0  0  0  0
    4.6900    4.8148    0.2295 C   0  0  0  0  0  0
    4.1212    4.8351   -1.0392 O   0  0  0  0  0  0
    3.9815    4.8410    1.0744 H   0  0  0  0  0  0
    5.4043    5.6475    0.3433 H   0  0  0  0  0  0
    5.2485    3.8644    0.2681 H   0  0  0  0  0  0
    3.6179    3.9950   -1.0733 H   0  0  0  0  0  0
  1  2  1  0  0  0
  1  3  1  0  0  0
  1  4  1  0  0  0
  1  5  1  0  0  0
  2  6  1  0  0  0
  7  8  1  0  0  0
  7  9  1  0  0  0
  7 10  1  0  0  0
  7 11  1  0  0  0
  8 12  1  0  0  0
M  END
$$$$
