


 12 10  0  0  1  0            999 V2000
   -0.2404    3.3708    2.5222 C   0  0  0  0  0  0
   -0.5077    4.7130    2.2345 O   0  0  0  0  0  0
    0.4118    3.3244    3.4105 H   0  0  0  0  0  0
    0.2871    2.9035    1.6737 H   0  0  0  0  0  0
   -1.1569    2.7927    2.7281 H   0  0  0  0  0  0
    0.4051    5.0550    2.1335 H   0  0  0  0  0  0
   -5.6466    2.3011    2.8253 C   0  0  0  0  0  0
   -5.2438    2.0134    1.4741 O   0  0  0  0  0  0
   -6.6381    2.7841    2.8370 H   0  0  0  0  0  0
   -4.9262    2.9643    3.3330 H   0  0  0  0  0  0
   -5.7098    1.3542    3.3874 H   0  0  0  0  0  0
   -4.5522    1.3190    1.4698 H   0  0  0  0  0  0
  1  2  1  0  0  0
  1  3  1  0  0  0
  1  4  1  0  0  0
  1  5  1  0  0  0
  2  6  1  0  0  0
  7  8  1  0  0  0
  7  9  1  0  0  0
  7 10  1  0  0  0
  7 11  1  0  0  0
  8 12  1  0  0  0
M  END
$$$$
