


 12 10  0  0  1  0            999 V2000
    3.6535   -0.8569   -4.0370 C   0  0  0  0  0  0
    4.9626   -0.4276   -4.1537 O   0  0  0  0  0  0
    3.3872   -1.8862   -4.3306 H   0  0  0  0  0  0
    3.0790   -0.1529   -4.6623 H   0  0  0  0  0  0
    3.3661   -0.7062   -2.9828 H   0  0  0  0  0  0
    5.0696   -0.2163   -5.1047 H   0  0  0  0  0  0
    5.2002    3.6314   -1.6368 C   0  0  0  0  0  0
    6.0245    4.3465   -2.5090 O   0  0  0  0  0  0
    4.8914    4.2173   -0.7548 H   0  0  0  0  0  0
    5.7161    2.7200   -1.2907 H   0  0  0  0  0  0
    4.2968    3.3337   -2.1953 H   0  0  0  0  0  0
    5.5190    5.1670   -2.6868 H   0  0  0  0  0  0
  1  2  1  0  0  0
  1  3  1  0  0  0
  1  4  1  0  0  0
  1  5  1  0  0  0
  2  6  1  0  0  0
  7  8  1  0  0  0
  7  9  1  0  0  0
  7 10  1  0  0  0
  7 11  1  0  0  0
  8 12  1  0  0  0
M  END
$$$$
