


 12 10  0  0  1  0            999 V2000
    1.2902   -4.3850    0.8932 C   0  0  0  0  0  0
    0.6637   -4.1016   -0.4258 O   0  0  0  0  0  0
    2.3775   -4.2161    0.8162 H   0  0  0  0  0  0
    1.1145   -5.4514    1.1138 H   0  0  0  0  0  0
    0.8992   -3.7834    1.7309 H   0  0  0  0  0  0
   -0.2863   -3.9036   -0.2893 H   0  0  0  0  0  0
   -3.4311    3.1355    0.6765 C   0  0  0  0  0  0
   -4.3933    2.8555   -0.3164 O   0  0  0  0  0  0
   -2.9784    4.1046    0.4073 H   0  0  0  0  0  0
   -2.6245    2.3945    0.8070 H   0  0  0  0  0  0
   -3.9625    3.2498    1.6362 H   0  0  0  0  0  0
   -4.8059    3.7148   -0.5439 H   0  0  0  0  0  0
  1  2  1  0  0  0
  1  3  1  0  0  0
  1  4  1  0  0  0
  1  5  1  0  0  0
  2  6  1  0  0  0
  7  8  1  0  0  0
  7  9  1  0  0  0
  7 10  1  0  0  0
  7 11  1  0  0  0
  8 12  1  0  0  0
M  END
$$$$
