


 18 16  0  0  1  0            999 V2000
   -0.9851    2.1486    1.9729 Br  0  0  0  0  0  0
    0.6338    2.0071    3.0246 C   0  0  0  0  0  0
    1.7401    2.7600    2.3352 C   0  0  0  0  0  0
    3.3590    2.6186    3.3869 Br  0  0  0  0  0  0
    0.4121    2.4112    4.0311 H   0  0  0  0  0  0
    0.8633    0.9300    3.1374 H   0  0  0  0  0  0
    1.9617    2.3559    1.3287 H   0  0  0  0  0  0
    1.5106    3.8371    2.2224 H   0  0  0  0  0  0
    0.5432    0.7526   -0.4479 C   0  0  0  0  0  0
    1.2502    0.0540    1.0601 S   0  0  0  0  0  0
    3.1105   -0.5058    0.4430 S   0  0  0  0  0  0
    4.0480    1.0275    0.6219 C   0  0  0  0  0  0
   -0.4931    1.0527   -0.2185 H   0  0  0  0  0  0
    0.5222    0.0110   -1.2642 H   0  0  0  0  0  0
    1.0985    1.6407   -0.7936 H   0  0  0  0  0  0
    3.6671    1.8259   -0.0369 H   0  0  0  0  0  0
    4.0301    1.3918    1.6628 H   0  0  0  0  0  0
    5.0929    0.8100    0.3432 H   0  0  0  0  0  0
  1  2  1  0  0  0
  2  3  1  0  0  0
  3  4  1  0  0  0
  2  5  1  0  0  0
  2  6  1  0  0  0
  3  7  1  0  0  0
  3  8  1  0  0  0
  9 10  1  0  0  0
 10 11  1  0  0  0
 11 12  1  0  0  0
  9 13  1  0  0  0
  9 14  1  0  0  0
  9 15  1  0  0  0
 12 16  1  0  0  0
 12 17  1  0  0  0
 12 18  1  0  0  0
M  END
$$$$
