


 16 14  0  0  1  0            999 V2000
   -3.4168   -5.1636    0.3255 C   0  0  0  0  0  0
   -3.1832   -4.9799    1.7253 O   0  0  0  0  0  0
   -3.8734   -4.0508    2.4448 C   0  0  0  0  0  0
   -4.6163   -3.2143    1.9731 O   0  0  0  0  0  0
   -3.7892   -4.2284   -0.1255 H   0  0  0  0  0  0
   -4.1675   -5.9554    0.1639 H   0  0  0  0  0  0
   -2.4837   -5.4538   -0.1861 H   0  0  0  0  0  0
   -3.6338   -4.2010    3.5162 H   0  0  0  0  0  0
    1.1319   -5.7797    0.7180 C   0  0  0  0  0  0
    0.8782   -5.4620   -0.6699 O   0  0  0  0  0  0
    1.1865   -4.2194   -1.0483 C   0  0  0  0  0  0
    1.4706   -3.3064   -0.2795 O   0  0  0  0  0  0
    0.1500   -6.1629    1.0431 H   0  0  0  0  0  0
    1.4682   -5.0165    1.4399 H   0  0  0  0  0  0
    1.8546   -6.6129    0.7247 H   0  0  0  0  0  0
    1.1717   -4.1380   -2.1532 H   0  0  0  0  0  0
  1  2  1  0  0  0
  2  3  1  0  0  0
  3  4  2  0  0  0
  1  5  1  0  0  0
  1  6  1  0  0  0
  1  7  1  0  0  0
  3  8  1  0  0  0
  9 10  1  0  0  0
 10 11  1  0  0  0
 11 12  2  0  0  0
  9 13  1  0  0  0
  9 14  1  0  0  0
  9 15  1  0  0  0
 11 16  1  0  0  0
M  END
$$$$
