


 16 14  0  0  1  0            999 V2000
   -7.9567    3.8373   11.1100 C   0  0  0  0  0  0
   -7.4003    4.9326   11.7465 O   0  0  0  0  0  0
   -6.2589    4.7825   12.5725 C   0  0  0  0  0  0
   -5.5696    3.7146   12.6102 O   0  0  0  0  0  0
   -7.1818    3.3739   10.4765 H   0  0  0  0  0  0
   -8.8478    4.0324   10.4898 H   0  0  0  0  0  0
   -8.2316    3.1258   11.9068 H   0  0  0  0  0  0
   -6.0866    5.7478   13.0885 H   0  0  0  0  0  0
   -4.1054    7.1035   14.0857 C   0  0  0  0  0  0
   -3.3131    6.1798   13.3599 O   0  0  0  0  0  0
   -3.1748    4.9406   13.8035 C   0  0  0  0  0  0
   -3.9567    4.4121   14.5751 O   0  0  0  0  0  0
   -3.4735    8.0029   14.1774 H   0  0  0  0  0  0
   -4.3768    6.7595   15.0979 H   0  0  0  0  0  0
   -5.0288    7.3758   13.5474 H   0  0  0  0  0  0
   -2.3552    4.4260   13.2638 H   0  0  0  0  0  0
  1  2  1  0  0  0
  2  3  1  0  0  0
  3  4  2  0  0  0
  1  5  1  0  0  0
  1  6  1  0  0  0
  1  7  1  0  0  0
  3  8  1  0  0  0
  9 10  1  0  0  0
 10 11  1  0  0  0
 11 12  2  0  0  0
  9 13  1  0  0  0
  9 14  1  0  0  0
  9 15  1  0  0  0
 11 16  1  0  0  0
M  END
$$$$
