


 16 14  0  0  1  0            999 V2000
    0.6148   -3.1600    1.5760 C   0  0  0  0  0  0
    1.6416   -3.9121    2.1838 O   0  0  0  0  0  0
    1.8163   -3.7357    3.4676 C   0  0  0  0  0  0
    1.0880   -3.1897    4.2225 O   0  0  0  0  0  0
   -0.3353   -3.6892    1.7604 H   0  0  0  0  0  0
    0.7473   -3.0439    0.4872 H   0  0  0  0  0  0
    0.5533   -2.1574    2.0318 H   0  0  0  0  0  0
    2.8222   -4.1398    3.6966 H   0  0  0  0  0  0
   -4.7995   -0.2655    0.1681 C   0  0  0  0  0  0
   -5.6177   -1.3753    0.0054 O   0  0  0  0  0  0
   -6.2874   -1.7679    1.1171 C   0  0  0  0  0  0
   -6.2502   -1.1874    2.2070 O   0  0  0  0  0  0
   -4.4479   -0.0392    1.1887 H   0  0  0  0  0  0
   -5.4917    0.5320   -0.1505 H   0  0  0  0  0  0
   -3.9303   -0.2688   -0.5109 H   0  0  0  0  0  0
   -6.8136   -2.7319    0.9705 H   0  0  0  0  0  0
  1  2  1  0  0  0
  2  3  1  0  0  0
  3  4  2  0  0  0
  1  5  1  0  0  0
  1  6  1  0  0  0
  1  7  1  0  0  0
  3  8  1  0  0  0
  9 10  1  0  0  0
 10 11  1  0  0  0
 11 12  2  0  0  0
  9 13  1  0  0  0
  9 14  1  0  0  0
  9 15  1  0  0  0
 11 16  1  0  0  0
M  END
$$$$
