


 16 14  0  0  1  0            999 V2000
    0.5879    6.5673   -0.2545 C   0  0  0  0  0  0
   -0.3788    6.7541    0.7966 O   0  0  0  0  0  0
   -0.3330    5.8248    1.8484 C   0  0  0  0  0  0
    0.4676    4.8890    1.9016 O   0  0  0  0  0  0
    1.5882    6.9742   -0.0301 H   0  0  0  0  0  0
    0.1805    7.0987   -1.1310 H   0  0  0  0  0  0
    0.6915    5.4988   -0.5078 H   0  0  0  0  0  0
   -1.0075    6.1787    2.6530 H   0  0  0  0  0  0
    0.9380    3.2922    4.9854 C   0  0  0  0  0  0
    0.0115    2.1715    5.2909 O   0  0  0  0  0  0
   -0.6911    2.1217    6.4113 C   0  0  0  0  0  0
   -0.6644    3.0957    7.1780 O   0  0  0  0  0  0
    1.8510    3.2973    5.6043 H   0  0  0  0  0  0
    0.4149    4.2536    5.1220 H   0  0  0  0  0  0
    1.2315    3.1987    3.9263 H   0  0  0  0  0  0
   -1.3243    1.2128    6.3852 H   0  0  0  0  0  0
  1  2  1  0  0  0
  2  3  1  0  0  0
  3  4  2  0  0  0
  1  5  1  0  0  0
  1  6  1  0  0  0
  1  7  1  0  0  0
  3  8  1  0  0  0
  9 10  1  0  0  0
 10 11  1  0  0  0
 11 12  2  0  0  0
  9 13  1  0  0  0
  9 14  1  0  0  0
  9 15  1  0  0  0
 11 16  1  0  0  0
M  END
$$$$
