


 16 14  0  0  1  0            999 V2000
   -2.7304    1.6811    1.9775 C   0  0  0  0  0  0
   -3.2946    2.3024    3.0748 O   0  0  0  0  0  0
   -3.4867    1.5571    4.2084 C   0  0  0  0  0  0
   -3.2197    0.3769    4.3769 O   0  0  0  0  0  0
   -1.9617    0.9152    2.1753 H   0  0  0  0  0  0
   -2.2810    2.4806    1.3648 H   0  0  0  0  0  0
   -3.5501    1.2169    1.4038 H   0  0  0  0  0  0
   -4.0302    2.1078    5.0015 H   0  0  0  0  0  0
    3.1320   -2.4401    0.8343 C   0  0  0  0  0  0
    3.1765   -2.7630   -0.5621 O   0  0  0  0  0  0
    3.2083   -4.0872   -0.9283 C   0  0  0  0  0  0
    3.4538   -5.0626   -0.1873 O   0  0  0  0  0  0
    3.2613   -3.2703    1.5490 H   0  0  0  0  0  0
    2.2046   -1.8993    1.0874 H   0  0  0  0  0  0
    3.9837   -1.7475    0.9418 H   0  0  0  0  0  0
    3.1091   -4.1449   -2.0304 H   0  0  0  0  0  0
  1  2  1  0  0  0
  2  3  1  0  0  0
  3  4  2  0  0  0
  1  5  1  0  0  0
  1  6  1  0  0  0
  1  7  1  0  0  0
  3  8  1  0  0  0
  9 10  1  0  0  0
 10 11  1  0  0  0
 11 12  2  0  0  0
  9 13  1  0  0  0
  9 14  1  0  0  0
  9 15  1  0  0  0
 11 16  1  0  0  0
M  END
$$$$
