


 16 14  0  0  1  0            999 V2000
    0.0000    0.0000    0.0000 C   0  0  0  0  0  0
   -0.3476    1.3595   -0.2601 O   0  0  0  0  0  0
   -0.8113    2.2272    0.7203 C   0  0  0  0  0  0
   -0.8031    1.8116    1.8907 O   0  0  0  0  0  0
    0.8832   -0.2060    0.6278 H   0  0  0  0  0  0
    0.1477   -0.4783   -0.9829 H   0  0  0  0  0  0
   -0.8856   -0.4492    0.4803 H   0  0  0  0  0  0
   -1.1903    3.2003    0.3500 H   0  0  0  0  0  0
    3.0615   -1.9881   -3.1186 C   0  0  0  0  0  0
    4.0218   -1.8307   -2.1357 O   0  0  0  0  0  0
    3.8860   -0.8839   -1.2388 C   0  0  0  0  0  0
    2.8841   -0.2887   -0.9674 O   0  0  0  0  0  0
    2.5629   -1.0530   -3.4244 H   0  0  0  0  0  0
    2.3082   -2.6587   -2.6720 H   0  0  0  0  0  0
    3.4776   -2.4749   -4.0167 H   0  0  0  0  0  0
    4.8084   -0.5278   -0.7389 H   0  0  0  0  0  0
  1  2  1  0  0  0
  2  3  1  0  0  0
  3  4  2  0  0  0
  1  5  1  0  0  0
  1  6  1  0  0  0
  1  7  1  0  0  0
  3  8  1  0  0  0
  9 10  1  0  0  0
 10 11  1  0  0  0
 11 12  2  0  0  0
  9 13  1  0  0  0
  9 14  1  0  0  0
  9 15  1  0  0  0
 11 16  1  0  0  0
M  END
$$$$
