


 14 12  0  0  1  0            999 V2000
    1.9489    1.8463    0.1178 C   0  0  0  0  0  0
    1.3076    2.9412    0.9399 C   0  0  0  0  0  0
    1.6559    2.7101    2.3078 O   0  0  0  0  0  0
    1.5794    0.8587    0.4417 H   0  0  0  0  0  0
    3.0449    1.8690    0.2393 H   0  0  0  0  0  0
    1.7106    1.9778   -0.9510 H   0  0  0  0  0  0
    1.6707    3.9334    0.6095 H   0  0  0  0  0  0
    0.2082    2.9253    0.8115 H   0  0  0  0  0  0
    1.2445    3.4154    2.8498 H   0  0  0  0  0  0
    3.9951   -0.3815    3.8156 N   0  0  0  0  0  0
    3.4499   -0.9597    4.4833 H   0  0  0  0  0  0
    4.2871   -0.9666    3.0095 H   0  0  0  0  0  0
    4.8366   -0.0038    4.2919 H   0  0  0  0  0  0
    3.4069    0.4042    3.4778 H   0  0  0  0  0  0
  1  2  1  0  0  0
  2  3  1  0  0  0
  1  4  1  0  0  0
  1  5  1  0  0  0
  1  6  1  0  0  0
  2  7  1  0  0  0
  2  8  1  0  0  0
  3  9  1  0  0  0
 10 11  1  0  0  0
 10 12  1  0  0  0
 10 13  1  0  0  0
 10 14  1  0  0  0
M  CHG  1  10   1
M  END
$$$$
