


  8  6  0  0  1  0            999 V2000
    0.0000    0.0000    0.0000 Cl  0  0  0  0  0  0
   -0.9471    1.4064    0.5996 C   0  0  0  0  0  0
    0.0997    2.3879    1.5850 Cl  0  0  0  0  0  0
   -1.5882    2.3851   -0.7379 Cl  0  0  0  0  0  0
   -1.8343    1.0404    1.1553 H   0  0  0  0  0  0
    0.2717    5.9514    3.7917 O   0  0  0  0  0  0
    0.6344    5.9548    4.7064 H   0  0  0  0  0  0
    0.8200    6.6077    3.3050 H   0  0  0  0  0  0
  1  2  1  0  0  0
  2  3  1  0  0  0
  2  4  1  0  0  0
  2  5  1  0  0  0
  6  7  1  0  0  0
  6  8  1  0  0  0
M  END
$$$$
