


 18 16  0  0  1  0            999 V2000
    1.8602    2.2022    1.0153 C   0  0  0  0  0  0
    1.2315    1.6760   -0.0370 C   0  0  0  0  0  0
    2.6201    2.9820    0.8900 H   0  0  0  0  0  0
    1.6348    1.8696    2.0350 H   0  0  0  0  0  0
    1.4569    2.0085   -1.0567 H   0  0  0  0  0  0
    0.4716    0.8961    0.0883 H   0  0  0  0  0  0
   -1.7535    0.8398    1.6440 C   0  0  0  0  0  0
   -0.5296    0.6028    2.4798 C   0  0  0  0  0  0
    0.3470   -0.3883    2.2843 C   0  0  0  0  0  0
    1.5709   -0.6254    3.1200 C   0  0  0  0  0  0
   -1.8245    0.0801    0.8475 H   0  0  0  0  0  0
   -1.7114    1.8376    1.1757 H   0  0  0  0  0  0
   -2.6614    0.7818    2.2675 H   0  0  0  0  0  0
   -0.3506    1.2995    3.3093 H   0  0  0  0  0  0
    0.1681   -1.0851    1.4547 H   0  0  0  0  0  0
    1.5288   -1.6231    3.5883 H   0  0  0  0  0  0
    2.4789   -0.5674    2.4965 H   0  0  0  0  0  0
    1.6420    0.1343    3.9165 H   0  0  0  0  0  0
  1  2  2  0  0  0
  1  3  1  0  0  0
  1  4  1  0  0  0
  2  5  1  0  0  0
  2  6  1  0  0  0
  7  8  1  0  0  0
  8  9  2  0  0  0
  9 10  1  0  0  0
  7 11  1  0  0  0
  7 12  1  0  0  0
  7 13  1  0  0  0
  8 14  1  0  0  0
  9 15  1  0  0  0
 10 16  1  0  0  0
 10 17  1  0  0  0
 10 18  1  0  0  0
M  END
$$$$
