


 16 15  0  0  1  0            999 V2000
    3.6947    2.7754    3.1658 C   0  0  0  0  0  0
    2.8322    3.6517    2.3654 N   0  0  0  0  0  0
    3.0549    2.1848    3.8430 H   0  0  0  0  0  0
    4.4489    3.3078    3.7694 H   0  0  0  0  0  0
    4.2155    2.0841    2.4820 H   0  0  0  0  0  0
    2.3376    4.3133    2.9740 H   0  0  0  0  0  0
    3.4000    4.2211    1.7281 H   0  0  0  0  0  0
   -0.7179    0.3181    0.9474 C   0  0  0  0  0  0
   -1.0894   -0.7485    0.2572 N   0  0  0  0  0  0
   -0.0685   -0.9731   -0.6351 C   0  0  0  0  0  0
    0.9286   -0.0340   -0.4827 C   0  0  0  0  0  0
    0.4953    0.7817    0.5327 N   0  0  0  0  0  0
    0.9930    1.5917    0.9105 H   0  0  0  0  0  0
   -1.2828    0.7919    1.7502 H   0  0  0  0  0  0
   -0.1026   -1.8008   -1.3435 H   0  0  0  0  0  0
    1.8801    0.1229   -0.9906 H   0  0  0  0  0  0
  1  2  1  0  0  0
  1  3  1  0  0  0
  1  4  1  0  0  0
  1  5  1  0  0  0
  2  6  1  0  0  0
  2  7  1  0  0  0
  8  9  2  0  0  0
  9 10  1  0  0  0
 10 11  2  0  0  0
 11 12  1  0  0  0
 12 13  1  0  0  0
  8 12  1  0  0  0
  8 14  1  0  0  0
 10 15  1  0  0  0
 11 16  1  0  0  0
M  END
$$$$
