


 21 20  0  0  1  0            999 V2000
    5.8218    3.9786    4.3805 F   0  0  0  0  0  0
    6.1530    2.7169    3.9086 C   0  0  0  0  0  0
    6.5703    1.8206    5.0358 C   0  0  0  0  0  0
    5.4815    1.4879    5.8282 F   0  0  0  0  0  0
    5.2778    2.3032    3.3717 H   0  0  0  0  0  0
    6.9788    2.8184    3.1783 H   0  0  0  0  0  0
    7.0141    0.8887    4.6357 H   0  0  0  0  0  0
    7.3316    2.3089    5.6741 H   0  0  0  0  0  0
    1.3733   -1.4956    1.4933 O   0  0  0  0  0  0
    0.4248   -0.7813    0.8057 C   0  0  0  0  0  0
    0.0785   -1.2422   -0.4649 C   0  0  0  0  0  0
   -0.8786   -0.5574   -1.2096 C   0  0  0  0  0  0
   -1.4940    0.5855   -0.6961 C   0  0  0  0  0  0
   -1.1433    1.0404    0.5739 C   0  0  0  0  0  0
   -0.1856    0.3604    1.3266 C   0  0  0  0  0  0
    1.5179   -1.0595    2.3680 H   0  0  0  0  0  0
    0.5711   -2.1425   -0.8554 H   0  0  0  0  0  0
   -1.1468   -0.9250   -2.2088 H   0  0  0  0  0  0
   -2.2480    1.1219   -1.2871 H   0  0  0  0  0  0
   -1.6189    1.9379    0.9909 H   0  0  0  0  0  0
    0.0896    0.7201    2.3268 H   0  0  0  0  0  0
  1  2  1  0  0  0
  2  3  1  0  0  0
  3  4  1  0  0  0
  2  5  1  0  0  0
  2  6  1  0  0  0
  3  7  1  0  0  0
  3  8  1  0  0  0
  9 10  1  0  0  0
 10 11  2  0  0  0
 11 12  1  0  0  0
 12 13  2  0  0  0
 13 14  1  0  0  0
 14 15  2  0  0  0
 10 15  1  0  0  0
  9 16  1  0  0  0
 11 17  1  0  0  0
 12 18  1  0  0  0
 13 19  1  0  0  0
 14 20  1  0  0  0
 15 21  1  0  0  0
M  END
$$$$
