


  4  2  0  0  1  0            999 V2000
   -0.0052   -4.2519    1.9523 O   0  0  0  0  0  0
   -0.1400   -3.8576    2.8436 H   0  0  0  0  0  0
    0.1422   -5.2095    2.1244 H   0  0  0  0  0  0
    0.0000    0.0000    0.0000 Na  0  0  0  0  0  0
  1  2  1  0  0  0
  1  3  1  0  0  0
M  CHG  1   4   1
M  END
$$$$
