


  4  2  0  0  1  0            999 V2000
   -5.5830   -0.6833    1.0715 O   0  0  0  0  0  0
   -4.6866   -1.0079    1.3151 H   0  0  0  0  0  0
   -6.0514   -0.5799    1.9306 H   0  0  0  0  0  0
    0.0000    0.0000    0.0000 Na  0  0  0  0  0  0
  1  2  1  0  0  0
  1  3  1  0  0  0
M  CHG  1   4   1
M  END
$$$$
