


  4  2  0  0  1  0            999 V2000
    3.0201    0.0549   -2.6465 O   0  0  0  0  0  0
    2.5126    0.2940   -3.4549 H   0  0  0  0  0  0
    3.8878   -0.2640   -2.9836 H   0  0  0  0  0  0
    0.0000    0.0000    0.0000 Na  0  0  0  0  0  0
  1  2  1  0  0  0
  1  3  1  0  0  0
M  CHG  1   4   1
M  END
$$$$
