


 18 16  0  0  1  0            999 V2000
    0.0000    0.0000    0.0000 C   0  0  0  0  0  0
   -0.6006    0.7888    1.5027 S   0  0  0  0  0  0
    0.1935    2.3655    1.2801 C   0  0  0  0  0  0
    0.0362    3.3006    2.5105 C   0  0  0  0  0  0
    0.5836    4.7473    2.2496 C   0  0  0  0  0  0
    0.1229    5.5765    1.4949 O   0  0  0  0  0  0
    1.5602    5.0591    3.1958 O   0  0  0  0  0  0
   -0.3538   -1.0370   -0.1267 H   0  0  0  0  0  0
    1.1028   -0.0045    0.0199 H   0  0  0  0  0  0
   -0.3338    0.5940   -0.8673 H   0  0  0  0  0  0
   -0.1993    2.9283    0.4114 H   0  0  0  0  0  0
    1.2650    2.1609    1.0919 H   0  0  0  0  0  0
   -1.0489    3.3672    2.7197 H   0  0  0  0  0  0
    0.5235    2.8552    3.3990 H   0  0  0  0  0  0
    1.7448    6.0365    3.2481 H   0  0  0  0  0  0
    2.9051    8.3082    3.7340 O   0  0  0  0  0  0
    2.2580    9.0406    3.6192 H   0  0  0  0  0  0
    3.5557    8.6522    4.3872 H   0  0  0  0  0  0
  1  2  1  0  0  0
  2  3  1  0  0  0
  3  4  1  0  0  0
  4  5  1  0  0  0
  5  6  2  0  0  0
  5  7  1  0  0  0
  1  8  1  0  0  0
  1  9  1  0  0  0
  1 10  1  0  0  0
  3 11  1  0  0  0
  3 12  1  0  0  0
  4 13  1  0  0  0
  4 14  1  0  0  0
  7 15  1  0  0  0
 16 17  1  0  0  0
 16 18  1  0  0  0
M  END
$$$$
