


 26 25  0  0  1  0            999 V2000
   -0.6552    5.2437    0.7467 Br  0  0  0  0  0  0
   -0.6584    3.5593   -0.1012 C   0  0  0  0  0  0
   -1.5236    2.5668    0.3565 C   0  0  0  0  0  0
   -1.5195    1.3235   -0.2765 C   0  0  0  0  0  0
   -0.6631    1.0788   -1.3500 C   0  0  0  0  0  0
    0.1958    2.0843   -1.7942 C   0  0  0  0  0  0
    0.2045    3.3333   -1.1724 C   0  0  0  0  0  0
   -2.1944    2.7682    1.2022 H   0  0  0  0  0  0
   -2.1982    0.5367    0.0784 H   0  0  0  0  0  0
   -0.6649    0.0980   -1.8437 H   0  0  0  0  0  0
    0.8726    1.8986   -2.6386 H   0  0  0  0  0  0
    0.8772    4.1305   -1.5154 H   0  0  0  0  0  0
    3.1193    2.8154    1.9108 C   0  0  0  0  0  0
    2.2153    1.6489    2.3081 C   0  0  0  0  0  0
    1.3417    1.9714    3.5183 C   0  0  0  0  0  0
    0.4377    0.8049    3.9156 C   0  0  0  0  0  0
    3.7374    2.5538    1.0356 H   0  0  0  0  0  0
    3.7879    3.0776    2.7480 H   0  0  0  0  0  0
    2.5082    3.6983    1.6588 H   0  0  0  0  0  0
    1.5603    1.3833    1.4562 H   0  0  0  0  0  0
    2.8373    0.7638    2.5431 H   0  0  0  0  0  0
    1.9967    2.2370    4.3703 H   0  0  0  0  0  0
    0.7197    2.8565    3.2833 H   0  0  0  0  0  0
    1.0488   -0.0781    4.1677 H   0  0  0  0  0  0
   -0.2309    0.5427    3.0785 H   0  0  0  0  0  0
   -0.1804    1.0665    4.7909 H   0  0  0  0  0  0
  1  2  1  0  0  0
  2  3  1  0  0  0
  3  4  2  0  0  0
  4  5  1  0  0  0
  5  6  2  0  0  0
  6  7  1  0  0  0
  2  7  2  0  0  0
  3  8  1  0  0  0
  4  9  1  0  0  0
  5 10  1  0  0  0
  6 11  1  0  0  0
  7 12  1  0  0  0
 13 14  1  0  0  0
 14 15  1  0  0  0
 15 16  1  0  0  0
 13 17  1  0  0  0
 13 18  1  0  0  0
 13 19  1  0  0  0
 14 20  1  0  0  0
 14 21  1  0  0  0
 15 22  1  0  0  0
 15 23  1  0  0  0
 16 24  1  0  0  0
 16 25  1  0  0  0
 16 26  1  0  0  0
M  END
$$$$
