


 22 20  0  0  1  0            999 V2000
    0.6072    1.4285    4.1887 C   0  0  0  0  0  0
    1.2417    0.2964    3.4142 C   0  0  0  0  0  0
    0.6337   -0.7298    3.1573 O   0  0  0  0  0  0
    2.6726    0.5084    2.9762 C   0  0  0  0  0  0
   -0.4334    1.1774    4.4543 H   0  0  0  0  0  0
    0.6032    2.3510    3.5840 H   0  0  0  0  0  0
    1.1711    1.6190    5.1173 H   0  0  0  0  0  0
    2.7433    1.3890    2.3158 H   0  0  0  0  0  0
    3.3209    0.6734    3.8532 H   0  0  0  0  0  0
    3.0417   -0.3740    2.4269 H   0  0  0  0  0  0
   -1.5177    1.4507    1.2198 C   0  0  0  0  0  0
   -0.2474    1.4536    0.6062 O   0  0  0  0  0  0
   -0.0665    0.3062   -0.2085 C   0  0  0  0  0  0
    1.3103    0.3753   -0.8316 C   0  0  0  0  0  0
   -1.5963    2.3624    1.8356 H   0  0  0  0  0  0
   -1.6508    0.5722    1.8734 H   0  0  0  0  0  0
   -2.3293    1.4597    0.4729 H   0  0  0  0  0  0
   -0.1730   -0.6073    0.4077 H   0  0  0  0  0  0
   -0.8500    0.2783   -0.9899 H   0  0  0  0  0  0
    1.4072    1.2848   -1.4480 H   0  0  0  0  0  0
    2.0857    0.3974   -0.0475 H   0  0  0  0  0  0
    1.4839   -0.5048   -1.4734 H   0  0  0  0  0  0
  1  2  1  0  0  0
  2  3  2  0  0  0
  2  4  1  0  0  0
  1  5  1  0  0  0
  1  6  1  0  0  0
  1  7  1  0  0  0
  4  8  1  0  0  0
  4  9  1  0  0  0
  4 10  1  0  0  0
 11 12  1  0  0  0
 12 13  1  0  0  0
 13 14  1  0  0  0
 11 15  1  0  0  0
 11 16  1  0  0  0
 11 17  1  0  0  0
 13 18  1  0  0  0
 13 19  1  0  0  0
 14 20  1  0  0  0
 14 21  1  0  0  0
 14 22  1  0  0  0
M  END
$$$$
