


 18 16  0  0  1  0            999 V2000
   -4.1144   -6.7150    1.3572 C   0  0  0  0  0  0
   -4.9058   -6.0276    2.4476 C   0  0  0  0  0  0
   -5.9938   -6.4670    2.9279 O   0  0  0  0  0  0
   -4.3345   -4.9961    3.0810 N   0  0  0  0  0  0
   -4.8239   -7.4248    0.8995 H   0  0  0  0  0  0
   -3.2945   -7.2878    1.8223 H   0  0  0  0  0  0
   -3.6917   -6.0781    0.5621 H   0  0  0  0  0  0
   -3.4218   -4.6036    2.8373 H   0  0  0  0  0  0
   -4.8847   -4.5807    3.8368 H   0  0  0  0  0  0
   -7.8224   -3.7404    6.6396 C   0  0  0  0  0  0
   -7.3538   -4.4752    5.4275 C   0  0  0  0  0  0
   -6.5033   -4.0254    4.7330 O   0  0  0  0  0  0
   -8.0500   -5.6334    5.1636 N   0  0  0  0  0  0
   -7.3014   -2.7699    6.5833 H   0  0  0  0  0  0
   -7.5528   -4.2298    7.5906 H   0  0  0  0  0  0
   -8.9100   -3.5567    6.6344 H   0  0  0  0  0  0
   -8.7652   -5.8503    5.8621 H   0  0  0  0  0  0
   -7.8572   -6.2942    4.4068 H   0  0  0  0  0  0
  1  2  1  0  0  0
  2  3  2  0  0  0
  2  4  1  0  0  0
  1  5  1  0  0  0
  1  6  1  0  0  0
  1  7  1  0  0  0
  4  8  1  0  0  0
  4  9  1  0  0  0
 10 11  1  0  0  0
 11 12  2  0  0  0
 11 13  1  0  0  0
 10 14  1  0  0  0
 10 15  1  0  0  0
 10 16  1  0  0  0
 13 17  1  0  0  0
 13 18  1  0  0  0
M  END
$$$$
