


 18 16  0  0  1  0            999 V2000
   -1.2033    5.2820    1.0205 C   0  0  0  0  0  0
   -0.8337    5.5871   -0.3707 C   0  0  0  0  0  0
   -0.3695    6.6794   -0.5698 O   0  0  0  0  0  0
   -0.8476    4.7430   -1.3627 N   0  0  0  0  0  0
   -1.6562    6.2115    1.4044 H   0  0  0  0  0  0
   -0.3097    5.0506    1.6242 H   0  0  0  0  0  0
   -1.9304    4.4611    1.1393 H   0  0  0  0  0  0
   -1.1633    3.7845   -1.1951 H   0  0  0  0  0  0
   -0.4154    4.9903   -2.2563 H   0  0  0  0  0  0
   -3.4775   -0.0955    4.3735 C   0  0  0  0  0  0
   -3.6943    0.7489    3.0621 C   0  0  0  0  0  0
   -3.5661    0.1889    1.9575 O   0  0  0  0  0  0
   -3.8970    2.0523    3.2430 N   0  0  0  0  0  0
   -4.3871   -0.6950    4.5463 H   0  0  0  0  0  0
   -3.2836    0.5163    5.2706 H   0  0  0  0  0  0
   -2.6268   -0.7817    4.2250 H   0  0  0  0  0  0
   -4.1100    2.3888    4.1853 H   0  0  0  0  0  0
   -3.8486    2.7123    2.4630 H   0  0  0  0  0  0
  1  2  1  0  0  0
  2  3  2  0  0  0
  2  4  1  0  0  0
  1  5  1  0  0  0
  1  6  1  0  0  0
  1  7  1  0  0  0
  4  8  1  0  0  0
  4  9  1  0  0  0
 10 11  1  0  0  0
 11 12  2  0  0  0
 11 13  1  0  0  0
 10 14  1  0  0  0
 10 15  1  0  0  0
 10 16  1  0  0  0
 13 17  1  0  0  0
 13 18  1  0  0  0
M  END
$$$$
