


 18 16  0  0  1  0            999 V2000
   -5.9102  -12.1182   -5.4420 C   0  0  0  0  0  0
   -5.6273  -11.5366   -4.0796 C   0  0  0  0  0  0
   -6.2543  -10.6553   -3.5656 O   0  0  0  0  0  0
   -4.5837  -12.0471   -3.4840 N   0  0  0  0  0  0
   -5.4580  -11.4286   -6.1746 H   0  0  0  0  0  0
   -7.0079  -12.0337   -5.5104 H   0  0  0  0  0  0
   -5.6198  -13.1496   -5.7039 H   0  0  0  0  0  0
   -4.1082  -12.8804   -3.8391 H   0  0  0  0  0  0
   -4.3113  -11.6480   -2.5823 H   0  0  0  0  0  0
   -2.8611  -10.4805   -5.1969 C   0  0  0  0  0  0
   -2.3647  -10.5945   -3.7412 C   0  0  0  0  0  0
   -3.1155  -10.4284   -2.8434 O   0  0  0  0  0  0
   -1.0662  -10.9067   -3.5304 N   0  0  0  0  0  0
   -3.8760  -10.0625   -5.3064 H   0  0  0  0  0  0
   -2.8806  -11.5380   -5.5098 H   0  0  0  0  0  0
   -2.1792   -9.9283   -5.8653 H   0  0  0  0  0  0
   -0.4445  -10.9984   -4.3376 H   0  0  0  0  0  0
   -0.7564  -11.2218   -2.6077 H   0  0  0  0  0  0
  1  2  1  0  0  0
  2  3  2  0  0  0
  2  4  1  0  0  0
  1  5  1  0  0  0
  1  6  1  0  0  0
  1  7  1  0  0  0
  4  8  1  0  0  0
  4  9  1  0  0  0
 10 11  1  0  0  0
 11 12  2  0  0  0
 11 13  1  0  0  0
 10 14  1  0  0  0
 10 15  1  0  0  0
 10 16  1  0  0  0
 13 17  1  0  0  0
 13 18  1  0  0  0
M  END
$$$$
