


 24 24  0  0  1  0            999 V2000
    2.2449    1.8208   -1.7271 F   0  0  0  0  0  0
    2.4509    2.3968   -0.5224 C   0  0  0  0  0  0
    3.6559    2.1747    0.1294 C   0  0  0  0  0  0
    3.8682    2.7694    1.3729 C   0  0  0  0  0  0
    2.8675    3.5628    1.9160 C   0  0  0  0  0  0
    1.6627    3.7849    1.2642 C   0  0  0  0  0  0
    1.4502    3.1903    0.0208 C   0  0  0  0  0  0
    3.0734    4.1389    3.1208 F   0  0  0  0  0  0
    4.4193    1.5393   -0.3385 H   0  0  0  0  0  0
    4.8059    2.6216    1.9247 H   0  0  0  0  0  0
    0.8992    4.4203    1.7321 H   0  0  0  0  0  0
    0.5125    3.3381   -0.5310 H   0  0  0  0  0  0
   -0.5092    0.9676    0.8291 C   0  0  0  0  0  0
    0.7576    0.3883    0.9119 C   0  0  0  0  0  0
    1.5583    0.6187    2.0312 C   0  0  0  0  0  0
    1.0924    1.4286    3.0676 C   0  0  0  0  0  0
   -0.1743    2.0079    2.9848 C   0  0  0  0  0  0
   -0.9751    1.7775    1.8655 C   0  0  0  0  0  0
   -1.1393    0.7863   -0.0516 H   0  0  0  0  0  0
    1.1242   -0.2490    0.0964 H   0  0  0  0  0  0
    2.5551    0.1629    2.0964 H   0  0  0  0  0  0
    1.7225    1.6099    3.9483 H   0  0  0  0  0  0
   -0.5409    2.6452    3.8003 H   0  0  0  0  0  0
   -1.9718    2.2334    1.8004 H   0  0  0  0  0  0
  1  2  1  0  0  0
  2  3  1  0  0  0
  3  4  2  0  0  0
  4  5  1  0  0  0
  5  6  2  0  0  0
  6  7  1  0  0  0
  2  7  2  0  0  0
  5  8  1  0  0  0
  3  9  1  0  0  0
  4 10  1  0  0  0
  6 11  1  0  0  0
  7 12  1  0  0  0
 13 14  1  0  0  0
 14 15  2  0  0  0
 15 16  1  0  0  0
 16 17  2  0  0  0
 17 18  1  0  0  0
 13 18  2  0  0  0
 13 19  1  0  0  0
 14 20  1  0  0  0
 15 21  1  0  0  0
 16 22  1  0  0  0
 17 23  1  0  0  0
 18 24  1  0  0  0
M  END
$$$$
