


 20 19  0  0  1  0            999 V2000
    3.7723    0.7102   -0.6910 C   0  0  0  0  0  0
    2.7510    0.6479    0.4235 C   0  0  0  0  0  0
    3.0020    0.2184    1.5410 O   0  0  0  0  0  0
    1.5102    1.1123    0.0880 N   0  0  0  0  0  0
    4.7343    0.3157   -0.3230 H   0  0  0  0  0  0
    3.9241    1.7494   -1.0282 H   0  0  0  0  0  0
    3.4504    0.1037   -1.5543 H   0  0  0  0  0  0
    1.3033    1.4708   -0.8475 H   0  0  0  0  0  0
    0.7782    1.0946    0.8025 H   0  0  0  0  0  0
   -2.0364    0.9712    3.7428 C   0  0  0  0  0  0
   -1.2625    0.4310    4.7665 C   0  0  0  0  0  0
    0.0714    0.1350    4.4991 C   0  0  0  0  0  0
    0.5720    0.3912    3.2233 C   0  0  0  0  0  0
   -0.1608    0.9113    2.2268 N   0  0  0  0  0  0
   -1.4444    1.1912    2.4999 C   0  0  0  0  0  0
   -3.0935    1.2228    3.9005 H   0  0  0  0  0  0
   -1.6931    0.2434    5.7589 H   0  0  0  0  0  0
    0.7254   -0.2923    5.2707 H   0  0  0  0  0  0
    1.6199    0.1683    2.9825 H   0  0  0  0  0  0
   -2.0292    1.6160    1.6733 H   0  0  0  0  0  0
  1  2  1  0  0  0
  2  3  2  0  0  0
  2  4  1  0  0  0
  1  5  1  0  0  0
  1  6  1  0  0  0
  1  7  1  0  0  0
  4  8  1  0  0  0
  4  9  1  0  0  0
 10 11  1  0  0  0
 11 12  2  0  0  0
 12 13  1  0  0  0
 13 14  2  0  0  0
 14 15  1  0  0  0
 10 15  2  0  0  0
 10 16  1  0  0  0
 11 17  1  0  0  0
 12 18  1  0  0  0
 13 19  1  0  0  0
 15 20  1  0  0  0
M  END
$$$$
