


 24 22  0  0  1  0            999 V2000
   10.5760   -2.2183    3.3259 C   0  0  0  0  0  0
   11.4608   -2.6989    4.4149 C   0  0  0  0  0  0
   11.7090   -3.9726    4.6400 C   0  0  0  0  0  0
   12.4606   -4.5907    5.8618 C   0  0  0  0  0  0
   11.1251   -1.6135    2.5847 H   0  0  0  0  0  0
    9.8331   -1.5738    3.8251 H   0  0  0  0  0  0
   10.0423   -3.0250    2.7957 H   0  0  0  0  0  0
   11.9877   -1.9831    5.0595 H   0  0  0  0  0  0
   11.2586   -4.6922    3.9437 H   0  0  0  0  0  0
   13.2645   -3.8990    6.1649 H   0  0  0  0  0  0
   12.9197   -5.4974    5.4333 H   0  0  0  0  0  0
   11.8864   -4.8774    6.7588 H   0  0  0  0  0  0
    7.6035   -7.3740    3.4639 C   0  0  0  0  0  0
    8.1006   -6.4204    2.3450 C   0  0  0  0  0  0
    8.2862   -5.0983    2.4852 C   0  0  0  0  0  0
    8.7384   -4.2022    1.3864 C   0  0  0  0  0  0
    7.4755   -6.9124    4.4574 H   0  0  0  0  0  0
    8.3862   -8.1480    3.5338 H   0  0  0  0  0  0
    6.6550   -7.8579    3.1760 H   0  0  0  0  0  0
    8.3763   -6.8587    1.3767 H   0  0  0  0  0  0
    8.0727   -4.6045    3.4424 H   0  0  0  0  0  0
    8.5986   -4.5945    0.3650 H   0  0  0  0  0  0
    9.8040   -3.9530    1.5247 H   0  0  0  0  0  0
    8.1445   -3.2789    1.4929 H   0  0  0  0  0  0
  1  2  1  0  0  0
  2  3  2  0  0  0
  3  4  1  0  0  0
  1  5  1  0  0  0
  1  6  1  0  0  0
  1  7  1  0  0  0
  2  8  1  0  0  0
  3  9  1  0  0  0
  4 10  1  0  0  0
  4 11  1  0  0  0
  4 12  1  0  0  0
 13 14  1  0  0  0
 14 15  2  0  0  0
 15 16  1  0  0  0
 13 17  1  0  0  0
 13 18  1  0  0  0
 13 19  1  0  0  0
 14 20  1  0  0  0
 15 21  1  0  0  0
 16 22  1  0  0  0
 16 23  1  0  0  0
 16 24  1  0  0  0
M  END
$$$$
