


 24 22  0  0  1  0            999 V2000
    0.0000    0.0000    0.0000 C   0  0  0  0  0  0
   -0.4476    0.3909   -1.3881 C   0  0  0  0  0  0
   -1.7170    0.4655   -1.8018 C   0  0  0  0  0  0
   -2.1349    0.9362   -3.2148 C   0  0  0  0  0  0
    0.7047    0.7915    0.3059 H   0  0  0  0  0  0
    0.5263   -0.9690    0.0263 H   0  0  0  0  0  0
   -0.8306   -0.0310    0.7251 H   0  0  0  0  0  0
    0.3429    0.4553   -2.1474 H   0  0  0  0  0  0
   -2.4236    0.1913   -1.0073 H   0  0  0  0  0  0
   -2.9913    0.3536   -3.5942 H   0  0  0  0  0  0
   -1.2657    0.7497   -3.8677 H   0  0  0  0  0  0
   -2.3890    2.0084   -3.2650 H   0  0  0  0  0  0
    3.7441    1.8456   -1.6952 C   0  0  0  0  0  0
    2.8040    2.7882   -2.3911 C   0  0  0  0  0  0
    2.2066    3.8928   -1.8721 C   0  0  0  0  0  0
    1.1869    4.7621   -2.5696 C   0  0  0  0  0  0
    3.6445    1.9725   -0.6041 H   0  0  0  0  0  0
    4.7400    2.2070   -2.0020 H   0  0  0  0  0  0
    3.6713    0.7709   -1.9325 H   0  0  0  0  0  0
    2.4590    2.4334   -3.3713 H   0  0  0  0  0  0
    2.5066    4.2701   -0.8855 H   0  0  0  0  0  0
    1.1552    4.5545   -3.6525 H   0  0  0  0  0  0
    1.4089    5.8326   -2.4230 H   0  0  0  0  0  0
    0.1936    4.5469   -2.1410 H   0  0  0  0  0  0
  1  2  1  0  0  0
  2  3  2  0  0  0
  3  4  1  0  0  0
  1  5  1  0  0  0
  1  6  1  0  0  0
  1  7  1  0  0  0
  2  8  1  0  0  0
  3  9  1  0  0  0
  4 10  1  0  0  0
  4 11  1  0  0  0
  4 12  1  0  0  0
 13 14  1  0  0  0
 14 15  2  0  0  0
 15 16  1  0  0  0
 13 17  1  0  0  0
 13 18  1  0  0  0
 13 19  1  0  0  0
 14 20  1  0  0  0
 15 21  1  0  0  0
 16 22  1  0  0  0
 16 23  1  0  0  0
 16 24  1  0  0  0
M  END
$$$$
