


 24 22  0  0  1  0            999 V2000
    2.1548   -6.3905    3.1199 C   0  0  0  0  0  0
    3.1711   -6.7193    2.0335 C   0  0  0  0  0  0
    4.4501   -6.9658    2.2411 C   0  0  0  0  0  0
    5.3924   -7.2779    1.1186 C   0  0  0  0  0  0
    2.6472   -6.6093    4.0823 H   0  0  0  0  0  0
    1.2516   -7.0181    3.0361 H   0  0  0  0  0  0
    1.8486   -5.3309    3.1142 H   0  0  0  0  0  0
    2.7670   -6.6978    1.0127 H   0  0  0  0  0  0
    4.9015   -6.9592    3.2420 H   0  0  0  0  0  0
    6.1686   -6.5021    1.0081 H   0  0  0  0  0  0
    4.7622   -7.2767    0.2133 H   0  0  0  0  0  0
    5.8865   -8.2606    1.2019 H   0  0  0  0  0  0
    1.6613   -4.1754   -1.4895 C   0  0  0  0  0  0
    0.9418   -5.3958   -1.1315 C   0  0  0  0  0  0
   -0.3962   -5.3803   -1.0459 C   0  0  0  0  0  0
   -1.3191   -6.4235   -0.5497 C   0  0  0  0  0  0
    2.1467   -4.3838   -2.4578 H   0  0  0  0  0  0
    2.4406   -3.9120   -0.7547 H   0  0  0  0  0  0
    0.9873   -3.3110   -1.6127 H   0  0  0  0  0  0
    1.5027   -6.3056   -0.8799 H   0  0  0  0  0  0
   -0.8083   -4.3930   -1.2933 H   0  0  0  0  0  0
   -0.7354   -7.2792   -0.1707 H   0  0  0  0  0  0
   -1.9684   -6.7757   -1.3688 H   0  0  0  0  0  0
   -1.9567   -6.0436    0.2662 H   0  0  0  0  0  0
  1  2  1  0  0  0
  2  3  2  0  0  0
  3  4  1  0  0  0
  1  5  1  0  0  0
  1  6  1  0  0  0
  1  7  1  0  0  0
  2  8  1  0  0  0
  3  9  1  0  0  0
  4 10  1  0  0  0
  4 11  1  0  0  0
  4 12  1  0  0  0
 13 14  1  0  0  0
 14 15  2  0  0  0
 15 16  1  0  0  0
 13 17  1  0  0  0
 13 18  1  0  0  0
 13 19  1  0  0  0
 14 20  1  0  0  0
 15 21  1  0  0  0
 16 22  1  0  0  0
 16 23  1  0  0  0
 16 24  1  0  0  0
M  END
$$$$
