


 24 22  0  0  1  0            999 V2000
    0.0063    5.3026    3.6655 C   0  0  0  0  0  0
    0.4916    4.4893    2.4745 C   0  0  0  0  0  0
    0.3126    4.8576    1.1630 C   0  0  0  0  0  0
    0.7651    3.8747    0.0080 C   0  0  0  0  0  0
    0.0903    6.3827    3.4583 H   0  0  0  0  0  0
    0.6602    5.0562    4.5189 H   0  0  0  0  0  0
   -1.0367    5.0780    3.9451 H   0  0  0  0  0  0
    0.9154    3.5219    2.7747 H   0  0  0  0  0  0
   -0.0738    5.8550    0.9150 H   0  0  0  0  0  0
    1.7424    4.1949   -0.3906 H   0  0  0  0  0  0
    0.0334    3.8686   -0.8174 H   0  0  0  0  0  0
    0.8637    2.8479    0.3985 H   0  0  0  0  0  0
   -3.0726    0.2644    9.3480 C   0  0  0  0  0  0
   -2.9352   -0.6565    8.0993 C   0  0  0  0  0  0
   -3.7153   -0.5870    7.0413 C   0  0  0  0  0  0
   -3.7203   -1.6415    5.9241 C   0  0  0  0  0  0
   -3.8300    1.0451    9.1654 H   0  0  0  0  0  0
   -2.1101    0.7538    9.5732 H   0  0  0  0  0  0
   -3.3810   -0.3263   10.2270 H   0  0  0  0  0  0
   -2.1192   -1.3898    8.1456 H   0  0  0  0  0  0
   -4.3743    0.2905    7.0061 H   0  0  0  0  0  0
   -3.3935   -1.1262    5.0052 H   0  0  0  0  0  0
   -4.7481   -2.0123    5.7729 H   0  0  0  0  0  0
   -3.0568   -2.5052    6.0980 H   0  0  0  0  0  0
  1  2  1  0  0  0
  2  3  2  0  0  0
  3  4  1  0  0  0
  1  5  1  0  0  0
  1  6  1  0  0  0
  1  7  1  0  0  0
  2  8  1  0  0  0
  3  9  1  0  0  0
  4 10  1  0  0  0
  4 11  1  0  0  0
  4 12  1  0  0  0
 13 14  1  0  0  0
 14 15  2  0  0  0
 15 16  1  0  0  0
 13 17  1  0  0  0
 13 18  1  0  0  0
 13 19  1  0  0  0
 14 20  1  0  0  0
 15 21  1  0  0  0
 16 22  1  0  0  0
 16 23  1  0  0  0
 16 24  1  0  0  0
M  END
$$$$
