


 24 22  0  0  1  0            999 V2000
    1.9648    2.3704   -0.1644 C   0  0  0  0  0  0
    0.5324    2.5080    0.2618 C   0  0  0  0  0  0
   -0.4984    1.8806   -0.3149 C   0  0  0  0  0  0
   -1.9309    2.0183    0.1113 C   0  0  0  0  0  0
    2.0435    1.6785   -1.0199 H   0  0  0  0  0  0
    2.5760    1.9756    0.6647 H   0  0  0  0  0  0
    2.3717    3.3503   -0.4658 H   0  0  0  0  0  0
    0.3272    3.1748    1.1097 H   0  0  0  0  0  0
   -0.2932    1.2138   -1.1628 H   0  0  0  0  0  0
   -2.5420    2.4130   -0.7178 H   0  0  0  0  0  0
   -2.3378    1.0384    0.4127 H   0  0  0  0  0  0
   -2.0096    2.7101    0.9667 H   0  0  0  0  0  0
    3.1131    1.2516    6.5126 C   0  0  0  0  0  0
    2.9695   -0.0375    5.7575 C   0  0  0  0  0  0
    1.8145   -0.5220    5.2885 C   0  0  0  0  0  0
    1.6709   -1.8111    4.5335 C   0  0  0  0  0  0
    2.1304    1.7399    6.6241 H   0  0  0  0  0  0
    3.7883    1.9384    5.9750 H   0  0  0  0  0  0
    3.5288    1.0641    7.5169 H   0  0  0  0  0  0
    3.8858   -0.6170    5.5832 H   0  0  0  0  0  0
    0.8983    0.0575    5.4629 H   0  0  0  0  0  0
    0.9958   -2.4979    5.0711 H   0  0  0  0  0  0
    1.2552   -1.6236    3.5291 H   0  0  0  0  0  0
    2.6536   -2.2994    4.4220 H   0  0  0  0  0  0
  1  2  1  0  0  0
  2  3  2  0  0  0
  3  4  1  0  0  0
  1  5  1  0  0  0
  1  6  1  0  0  0
  1  7  1  0  0  0
  2  8  1  0  0  0
  3  9  1  0  0  0
  4 10  1  0  0  0
  4 11  1  0  0  0
  4 12  1  0  0  0
 13 14  1  0  0  0
 14 15  2  0  0  0
 15 16  1  0  0  0
 13 17  1  0  0  0
 13 18  1  0  0  0
 13 19  1  0  0  0
 14 20  1  0  0  0
 15 21  1  0  0  0
 16 22  1  0  0  0
 16 23  1  0  0  0
 16 24  1  0  0  0
M  END
$$$$
