


 32 31  0  0  1  0            999 V2000
    1.6692    3.4534    0.4280 C   0  0  0  0  0  0
    2.9905    2.9909    1.0458 C   0  0  0  0  0  0
    3.2869    3.7527    2.3393 C   0  0  0  0  0  0
    2.1354    3.6081    3.3365 C   0  0  0  0  0  0
    0.8141    4.0706    2.7187 C   0  0  0  0  0  0
    0.5177    3.3089    1.4252 C   0  0  0  0  0  0
    1.4538    2.8737   -0.4902 H   0  0  0  0  0  0
    1.7619    4.5182    0.1398 H   0  0  0  0  0  0
    2.9199    1.9102    1.2748 H   0  0  0  0  0  0
    3.8182    3.1286    0.3237 H   0  0  0  0  0  0
    3.4215    4.8252    2.1006 H   0  0  0  0  0  0
    4.2298    3.3872    2.7898 H   0  0  0  0  0  0
    2.3508    4.1878    4.2547 H   0  0  0  0  0  0
    2.0427    2.5433    3.6247 H   0  0  0  0  0  0
    0.8847    5.1514    2.4898 H   0  0  0  0  0  0
   -0.0136    3.9329    3.4408 H   0  0  0  0  0  0
   -0.4252    3.6743    0.9748 H   0  0  0  0  0  0
    0.3832    2.2364    1.6640 H   0  0  0  0  0  0
    0.3422    0.5114    3.0983 C   0  0  0  0  0  0
    1.4311    0.1687    2.0821 C   0  0  0  0  0  0
    2.8332    0.2290    2.6839 C   0  0  0  0  0  0
    3.9220   -0.1138    1.6677 C   0  0  0  0  0  0
   -0.6578    0.4597    2.6360 H   0  0  0  0  0  0
    0.4971    1.5314    3.4887 H   0  0  0  0  0  0
    0.3766   -0.1974    3.9426 H   0  0  0  0  0  0
    1.2572   -0.8498    1.6847 H   0  0  0  0  0  0
    1.3774    0.8754    1.2317 H   0  0  0  0  0  0
    3.0071    1.2475    3.0812 H   0  0  0  0  0  0
    2.8869   -0.4777    3.5343 H   0  0  0  0  0  0
    3.8877    0.5951    0.8233 H   0  0  0  0  0  0
    3.7672   -1.1337    1.2773 H   0  0  0  0  0  0
    4.9221   -0.0620    2.1300 H   0  0  0  0  0  0
  1  2  1  0  0  0
  2  3  1  0  0  0
  3  4  1  0  0  0
  4  5  1  0  0  0
  5  6  1  0  0  0
  1  6  1  0  0  0
  1  7  1  0  0  0
  1  8  1  0  0  0
  2  9  1  0  0  0
  2 10  1  0  0  0
  3 11  1  0  0  0
  3 12  1  0  0  0
  4 13  1  0  0  0
  4 14  1  0  0  0
  5 15  1  0  0  0
  5 16  1  0  0  0
  6 17  1  0  0  0
  6 18  1  0  0  0
 19 20  1  0  0  0
 20 21  1  0  0  0
 21 22  1  0  0  0
 19 23  1  0  0  0
 19 24  1  0  0  0
 19 25  1  0  0  0
 20 26  1  0  0  0
 20 27  1  0  0  0
 21 28  1  0  0  0
 21 29  1  0  0  0
 22 30  1  0  0  0
 22 31  1  0  0  0
 22 32  1  0  0  0
M  END
$$$$
