


 24 22  0  0  1  0            999 V2000
    2.3691    1.2218   -0.2172 C   0  0  0  0  0  0
    2.2202    2.3568    0.7957 C   0  0  0  0  0  0
    3.5366    3.1180    0.9502 C   0  0  0  0  0  0
    1.0944    3.3044    0.3823 C   0  0  0  0  0  0
    2.6304    1.6395   -1.2040 H   0  0  0  0  0  0
    1.4260    0.6577   -0.3125 H   0  0  0  0  0  0
    3.1662    0.5249    0.0921 H   0  0  0  0  0  0
    1.9580    1.9135    1.7779 H   0  0  0  0  0  0
    3.8182    3.5686   -0.0165 H   0  0  0  0  0  0
    3.4365    3.9229    1.6976 H   0  0  0  0  0  0
    4.3447    2.4390    1.2704 H   0  0  0  0  0  0
    0.1393    2.7600    0.2927 H   0  0  0  0  0  0
    0.9712    4.1110    1.1245 H   0  0  0  0  0  0
    1.3336    3.7582   -0.5941 H   0  0  0  0  0  0
    0.8130   -1.1455    3.5123 C   0  0  0  0  0  0
    1.4157   -0.1339    2.1429 S   0  0  0  0  0  0
   -0.2872    0.7903    1.5098 S   0  0  0  0  0  0
   -0.3834    2.2123    2.6191 C   0  0  0  0  0  0
    1.6705   -1.7208    3.9001 H   0  0  0  0  0  0
    0.0361   -1.8537    3.1787 H   0  0  0  0  0  0
    0.4016   -0.5321    4.3314 H   0  0  0  0  0  0
   -0.4999    1.9090    3.6732 H   0  0  0  0  0  0
    0.5117    2.8512    2.5338 H   0  0  0  0  0  0
   -1.2667    2.8029    2.3232 H   0  0  0  0  0  0
  1  2  1  0  0  0
  2  3  1  0  0  0
  2  4  1  0  0  0
  1  5  1  0  0  0
  1  6  1  0  0  0
  1  7  1  0  0  0
  2  8  1  0  0  0
  3  9  1  0  0  0
  3 10  1  0  0  0
  3 11  1  0  0  0
  4 12  1  0  0  0
  4 13  1  0  0  0
  4 14  1  0  0  0
 15 16  1  0  0  0
 16 17  1  0  0  0
 17 18  1  0  0  0
 15 19  1  0  0  0
 15 20  1  0  0  0
 15 21  1  0  0  0
 18 22  1  0  0  0
 18 23  1  0  0  0
 18 24  1  0  0  0
M  END
$$$$
