


 22 21  0  0  1  0            999 V2000
    1.9563    4.1355    1.6079 C   0  0  0  0  0  0
    1.0427    3.3001    0.8533 N   0  0  0  0  0  0
    0.9377    3.4224   -0.4991 C   0  0  0  0  0  0
    1.6081    4.2388   -1.1242 O   0  0  0  0  0  0
   -0.0551    2.4862   -1.1550 C   0  0  0  0  0  0
    1.8833    3.8739    2.6770 H   0  0  0  0  0  0
    1.7051    5.2029    1.4890 H   0  0  0  0  0  0
    2.9973    3.9802    1.2781 H   0  0  0  0  0  0
    0.4666    2.6076    1.3382 H   0  0  0  0  0  0
   -1.0738    2.6551   -0.7671 H   0  0  0  0  0  0
   -0.0577    2.6712   -2.2424 H   0  0  0  0  0  0
    0.2185    1.4325   -0.9780 H   0  0  0  0  0  0
   -0.0511   -1.4719    2.3154 C   0  0  0  0  0  0
    1.0525   -0.9431    1.6556 C   0  0  0  0  0  0
    1.0530    0.4281    1.4254 C   0  0  0  0  0  0
    0.0423    1.2164    1.8164 N   0  0  0  0  0  0
   -0.9678    0.5996    2.4426 C   0  0  0  0  0  0
   -1.0752   -0.7065    2.7172 N   0  0  0  0  0  0
   -0.1264   -2.5452    2.5344 H   0  0  0  0  0  0
    1.8862   -1.5797    1.3308 H   0  0  0  0  0  0
    1.8880    0.9213    0.9105 H   0  0  0  0  0  0
   -1.8014    1.2361    2.7674 H   0  0  0  0  0  0
  1  2  1  0  0  0
  2  3  1  0  0  0
  3  4  2  0  0  0
  3  5  1  0  0  0
  1  6  1  0  0  0
  1  7  1  0  0  0
  1  8  1  0  0  0
  2  9  1  0  0  0
  5 10  1  0  0  0
  5 11  1  0  0  0
  5 12  1  0  0  0
 13 14  2  0  0  0
 14 15  1  0  0  0
 15 16  2  0  0  0
 16 17  1  0  0  0
 17 18  2  0  0  0
 13 18  1  0  0  0
 13 19  1  0  0  0
 14 20  1  0  0  0
 15 21  1  0  0  0
 17 22  1  0  0  0
M  END
$$$$
