


 19 18  0  0  1  0            999 V2000
    3.7217    1.1947    1.8977 C   0  0  0  0  0  0
    3.3731    0.9583    0.4958 C   0  0  0  0  0  0
    3.0833    0.7622   -0.6699 C   0  0  0  0  0  0
    2.7349    0.5267   -2.0720 C   0  0  0  0  0  0
    2.9180    1.7564    2.4030 H   0  0  0  0  0  0
    4.6555    1.7775    1.9673 H   0  0  0  0  0  0
    3.8653    0.2360    2.4238 H   0  0  0  0  0  0
    1.7307    0.9276   -2.2898 H   0  0  0  0  0  0
    3.4631    1.0218   -2.7362 H   0  0  0  0  0  0
    2.7372   -0.5543   -2.2911 H   0  0  0  0  0  0
   -0.0855    1.3894    0.7183 C   0  0  0  0  0  0
   -1.0660    2.2726    0.8207 N   0  0  0  0  0  0
   -0.5131    3.4704    0.4350 C   0  0  0  0  0  0
    0.8131    3.3094    0.0967 C   0  0  0  0  0  0
    1.0674    1.9736    0.2842 N   0  0  0  0  0  0
    1.9610    1.5012    0.1266 H   0  0  0  0  0  0
   -0.1542    0.3251    0.9433 H   0  0  0  0  0  0
   -1.0984    4.3898    0.4203 H   0  0  0  0  0  0
    1.5771    4.0050   -0.2506 H   0  0  0  0  0  0
  1  2  1  0  0  0
  2  3  3  0  0  0
  3  4  1  0  0  0
  1  5  1  0  0  0
  1  6  1  0  0  0
  1  7  1  0  0  0
  4  8  1  0  0  0
  4  9  1  0  0  0
  4 10  1  0  0  0
 11 12  2  0  0  0
 12 13  1  0  0  0
 13 14  2  0  0  0
 14 15  1  0  0  0
 15 16  1  0  0  0
 11 15  1  0  0  0
 11 17  1  0  0  0
 13 18  1  0  0  0
 14 19  1  0  0  0
M  END
$$$$
