


 32 30  0  0  1  0            999 V2000
    0.0000    0.0000    0.0000 O   0  0  0  0  0  0
    1.3559   -0.2856   -0.4307 C   0  0  0  0  0  0
    1.4465   -1.4035   -1.4014 C   0  0  0  0  0  0
    1.0899   -1.0663   -2.7961 C   0  0  0  0  0  0
    1.9730   -0.0630   -3.5985 C   0  0  0  0  0  0
    1.3499    0.1059   -4.9007 O   0  0  0  0  0  0
    0.1917    0.8238    0.4949 H   0  0  0  0  0  0
    1.8639   -0.6186    0.4948 H   0  0  0  0  0  0
    1.7762    0.6999   -0.7095 H   0  0  0  0  0  0
    2.5039   -1.7266   -1.3483 H   0  0  0  0  0  0
    0.8207   -2.2371   -1.0287 H   0  0  0  0  0  0
    1.1937   -2.0312   -3.3287 H   0  0  0  0  0  0
    0.0148   -0.8032   -2.7826 H   0  0  0  0  0  0
    2.0889    0.8904   -3.0481 H   0  0  0  0  0  0
    2.9861   -0.4321   -3.8492 H   0  0  0  0  0  0
    1.6710    0.9855   -5.1900 H   0  0  0  0  0  0
    4.0841   -4.2212    0.0805 O   0  0  0  0  0  0
    3.1622   -4.7071    1.0002 C   0  0  0  0  0  0
    2.2868   -3.5457    1.4839 C   0  0  0  0  0  0
    1.0373   -3.8478    2.3289 C   0  0  0  0  0  0
    0.3638   -2.6205    2.9963 C   0  0  0  0  0  0
   -0.7488   -2.8397    3.8037 O   0  0  0  0  0  0
    4.8815   -4.7286    0.3396 H   0  0  0  0  0  0
    3.5893   -5.3337    1.8066 H   0  0  0  0  0  0
    2.5592   -5.3657    0.3458 H   0  0  0  0  0  0
    2.9386   -2.7578    1.9082 H   0  0  0  0  0  0
    1.8796   -3.1664    0.5270 H   0  0  0  0  0  0
    0.2804   -4.2997    1.6593 H   0  0  0  0  0  0
    1.2612   -4.5813    3.1272 H   0  0  0  0  0  0
    1.0247   -2.0887    3.7074 H   0  0  0  0  0  0
    0.0400   -1.8919    2.2283 H   0  0  0  0  0  0
   -1.4475   -3.1630    3.1972 H   0  0  0  0  0  0
  1  2  1  0  0  0
  2  3  1  0  0  0
  3  4  1  0  0  0
  4  5  1  0  0  0
  5  6  1  0  0  0
  1  7  1  0  0  0
  2  8  1  0  0  0
  2  9  1  0  0  0
  3 10  1  0  0  0
  3 11  1  0  0  0
  4 12  1  0  0  0
  4 13  1  0  0  0
  5 14  1  0  0  0
  5 15  1  0  0  0
  6 16  1  0  0  0
 17 18  1  0  0  0
 18 19  1  0  0  0
 19 20  1  0  0  0
 20 21  1  0  0  0
 21 22  1  0  0  0
 17 23  1  0  0  0
 18 24  1  0  0  0
 18 25  1  0  0  0
 19 26  1  0  0  0
 19 27  1  0  0  0
 20 28  1  0  0  0
 20 29  1  0  0  0
 21 30  1  0  0  0
 21 31  1  0  0  0
 22 32  1  0  0  0
M  END
$$$$
