


 32 30  0  0  1  0            999 V2000
    0.0000    0.0000    0.0000 O   0  0  0  0  0  0
   -0.7723   -0.4463    1.0002 C   0  0  0  0  0  0
   -1.0711   -1.9557    0.7010 C   0  0  0  0  0  0
   -1.6010   -2.1524   -0.7566 C   0  0  0  0  0  0
   -2.3933   -3.4686   -0.9010 C   0  0  0  0  0  0
   -2.5738   -3.8100   -2.2782 O   0  0  0  0  0  0
    0.9181   -0.1962    0.2811 H   0  0  0  0  0  0
   -0.4513   -0.3738    2.0571 H   0  0  0  0  0  0
   -1.7594    0.0473    0.9136 H   0  0  0  0  0  0
   -0.1746   -2.5739    0.9001 H   0  0  0  0  0  0
   -1.9128   -2.3888    1.2750 H   0  0  0  0  0  0
   -2.2863   -1.3294   -1.0367 H   0  0  0  0  0  0
   -0.7438   -2.1295   -1.4567 H   0  0  0  0  0  0
   -1.8932   -4.3735   -0.5055 H   0  0  0  0  0  0
   -3.3865   -3.3946   -0.4178 H   0  0  0  0  0  0
   -2.4903   -2.9878   -2.8050 H   0  0  0  0  0  0
    2.5951   -2.1854   -5.0784 O   0  0  0  0  0  0
    1.3622   -2.8190   -4.9187 C   0  0  0  0  0  0
    1.1262   -3.2833   -3.4475 C   0  0  0  0  0  0
    2.1606   -4.1104   -2.8686 C   0  0  0  0  0  0
    1.9670   -4.5385   -1.4366 C   0  0  0  0  0  0
    3.1368   -5.3467   -1.2419 O   0  0  0  0  0  0
    3.0335   -2.5031   -5.8953 H   0  0  0  0  0  0
    1.3395   -3.7252   -5.5541 H   0  0  0  0  0  0
    0.5447   -2.1521   -5.2541 H   0  0  0  0  0  0
    0.9855   -2.3925   -2.8056 H   0  0  0  0  0  0
    0.2021   -3.8900   -3.3884 H   0  0  0  0  0  0
    2.4111   -5.0214   -3.4454 H   0  0  0  0  0  0
    3.0678   -3.4772   -2.8288 H   0  0  0  0  0  0
    1.9913   -3.6827   -0.7349 H   0  0  0  0  0  0
    1.0500   -5.1214   -1.2249 H   0  0  0  0  0  0
    2.9744   -6.1757   -0.7451 H   0  0  0  0  0  0
  1  2  1  0  0  0
  2  3  1  0  0  0
  3  4  1  0  0  0
  4  5  1  0  0  0
  5  6  1  0  0  0
  1  7  1  0  0  0
  2  8  1  0  0  0
  2  9  1  0  0  0
  3 10  1  0  0  0
  3 11  1  0  0  0
  4 12  1  0  0  0
  4 13  1  0  0  0
  5 14  1  0  0  0
  5 15  1  0  0  0
  6 16  1  0  0  0
 17 18  1  0  0  0
 18 19  1  0  0  0
 19 20  1  0  0  0
 20 21  1  0  0  0
 21 22  1  0  0  0
 17 23  1  0  0  0
 18 24  1  0  0  0
 18 25  1  0  0  0
 19 26  1  0  0  0
 19 27  1  0  0  0
 20 28  1  0  0  0
 20 29  1  0  0  0
 21 30  1  0  0  0
 21 31  1  0  0  0
 22 32  1  0  0  0
M  END
$$$$
