


  8  6  0  0  1  0            999 V2000
    0.0000    0.0000    0.0000 C   0  0  0  0  0  0
   -0.5178   -0.9386   -0.2467 H   0  0  0  0  0  0
    0.3208    0.4971   -0.9274 H   0  0  0  0  0  0
   -0.6830    0.6614    0.5532 H   0  0  0  0  0  0
    0.8806   -0.2194    0.6216 H   0  0  0  0  0  0
    1.1851    4.0566    1.4276 O   0  0  0  0  0  0
    1.6484    4.1595    0.5656 H   0  0  0  0  0  0
    1.8915    3.7893    2.0584 H   0  0  0  0  0  0
  1  2  1  0  0  0
  1  3  1  0  0  0
  1  4  1  0  0  0
  1  5  1  0  0  0
  6  7  1  0  0  0
  6  8  1  0  0  0
M  END
$$$$
