


  8  6  0  0  1  0            999 V2000
    0.0000    0.0000    0.0000 C   0  0  0  0  0  0
    0.4915   -0.4528   -0.8737 H   0  0  0  0  0  0
    0.2809   -0.5544    0.9076 H   0  0  0  0  0  0
    0.3181    1.0485    0.0976 H   0  0  0  0  0  0
   -1.0914   -0.0408   -0.1312 H   0  0  0  0  0  0
    0.5958   -0.1373   -3.3595 O   0  0  0  0  0  0
    0.9577   -0.9380   -2.9167 H   0  0  0  0  0  0
    0.3164   -0.4508   -4.2494 H   0  0  0  0  0  0
  1  2  1  0  0  0
  1  3  1  0  0  0
  1  4  1  0  0  0
  1  5  1  0  0  0
  6  7  1  0  0  0
  6  8  1  0  0  0
M  END
$$$$
