


  8  6  0  0  1  0            999 V2000
    0.0000    0.0000    0.0000 C   0  0  0  0  0  0
    0.2385    0.8614    0.6412 H   0  0  0  0  0  0
    0.4297   -0.9133    0.4372 H   0  0  0  0  0  0
   -1.0919   -0.1090   -0.0770 H   0  0  0  0  0  0
    0.4235    0.1607   -1.0024 H   0  0  0  0  0  0
   -0.8301    0.6791    2.8175 O   0  0  0  0  0  0
   -1.5522    1.3468    2.7862 H   0  0  0  0  0  0
   -0.9133    0.1840    1.9713 H   0  0  0  0  0  0
  1  2  1  0  0  0
  1  3  1  0  0  0
  1  4  1  0  0  0
  1  5  1  0  0  0
  6  7  1  0  0  0
  6  8  1  0  0  0
M  END
$$$$
