


  8  6  0  0  1  0            999 V2000
    0.0000    0.0000    0.0000 C   0  0  0  0  0  0
    0.1404   -0.9436    0.5476 H   0  0  0  0  0  0
   -0.7700   -0.1356   -0.7738 H   0  0  0  0  0  0
   -0.3181    0.7866    0.7000 H   0  0  0  0  0  0
    0.9482    0.2934   -0.4741 H   0  0  0  0  0  0
   -0.3641   -0.0466   -2.4741 O   0  0  0  0  0  0
    0.4923    0.4249   -2.3622 H   0  0  0  0  0  0
   -1.0488    0.6361   -2.2916 H   0  0  0  0  0  0
  1  2  1  0  0  0
  1  3  1  0  0  0
  1  4  1  0  0  0
  1  5  1  0  0  0
  6  7  1  0  0  0
  6  8  1  0  0  0
M  END
$$$$
