


  8  6  0  0  1  0            999 V2000
    0.0000    0.0000    0.0000 C   0  0  0  0  0  0
   -0.1314   -0.5162   -0.9624 H   0  0  0  0  0  0
   -0.9839    0.2834    0.4020 H   0  0  0  0  0  0
    0.5068   -0.6704    0.7098 H   0  0  0  0  0  0
    0.6092    0.9038   -0.1488 H   0  0  0  0  0  0
    0.1793   -2.8886    0.9163 O   0  0  0  0  0  0
    0.1526   -1.9053    0.8907 H   0  0  0  0  0  0
   -0.4702   -3.1722    0.2336 H   0  0  0  0  0  0
  1  2  1  0  0  0
  1  3  1  0  0  0
  1  4  1  0  0  0
  1  5  1  0  0  0
  6  7  1  0  0  0
  6  8  1  0  0  0
M  END
$$$$
