


  8  6  0  0  1  0            999 V2000
    0.0000    0.0000    0.0000 C   0  0  0  0  0  0
   -0.2324    1.0192   -0.3423 H   0  0  0  0  0  0
   -0.2977   -0.7238   -0.7730 H   0  0  0  0  0  0
    1.0805   -0.0868    0.1870 H   0  0  0  0  0  0
   -0.5504   -0.2092    0.9292 H   0  0  0  0  0  0
    2.3458   -2.7455   -0.8343 O   0  0  0  0  0  0
    2.1934   -2.5490    0.1178 H   0  0  0  0  0  0
    1.4569   -2.9818   -1.1841 H   0  0  0  0  0  0
  1  2  1  0  0  0
  1  3  1  0  0  0
  1  4  1  0  0  0
  1  5  1  0  0  0
  6  7  1  0  0  0
  6  8  1  0  0  0
M  END
$$$$
