


  8  6  0  0  1  0            999 V2000
    0.0000    0.0000    0.0000 C   0  0  0  0  0  0
   -0.8339   -0.5545   -0.4551 H   0  0  0  0  0  0
    0.7237   -0.7101    0.4267 H   0  0  0  0  0  0
    0.4959    0.6121   -0.7677 H   0  0  0  0  0  0
   -0.3855    0.6533    0.7966 H   0  0  0  0  0  0
   -2.8724   -3.5437    0.2659 O   0  0  0  0  0  0
   -3.5940   -3.6357    0.9286 H   0  0  0  0  0  0
   -2.0954   -3.2375    0.7863 H   0  0  0  0  0  0
  1  2  1  0  0  0
  1  3  1  0  0  0
  1  4  1  0  0  0
  1  5  1  0  0  0
  6  7  1  0  0  0
  6  8  1  0  0  0
M  END
$$$$
