


  8  6  0  0  1  0            999 V2000
    0.0000    0.0000    0.0000 C   0  0  0  0  0  0
    0.3780   -0.4836   -0.9128 H   0  0  0  0  0  0
   -0.6763   -0.6888    0.5274 H   0  0  0  0  0  0
    0.8449    0.2579    0.6555 H   0  0  0  0  0  0
   -0.5469    0.9155   -0.2697 H   0  0  0  0  0  0
    6.4638    1.8559    3.8489 O   0  0  0  0  0  0
    6.1056    2.7030    3.4992 H   0  0  0  0  0  0
    7.2990    2.1087    4.3036 H   0  0  0  0  0  0
  1  2  1  0  0  0
  1  3  1  0  0  0
  1  4  1  0  0  0
  1  5  1  0  0  0
  6  7  1  0  0  0
  6  8  1  0  0  0
M  END
$$$$
