


  8  6  0  0  1  0            999 V2000
    0.0000    0.0000    0.0000 C   0  0  0  0  0  0
   -0.7477   -0.5059    0.6285 H   0  0  0  0  0  0
    0.7223   -0.7386   -0.3779 H   0  0  0  0  0  0
   -0.5030    0.4879   -0.8479 H   0  0  0  0  0  0
    0.5289    0.7574    0.5971 H   0  0  0  0  0  0
    5.5122   -3.1649   -2.9836 O   0  0  0  0  0  0
    5.7908   -2.3658   -3.4857 H   0  0  0  0  0  0
    4.5640   -3.2863   -3.2169 H   0  0  0  0  0  0
  1  2  1  0  0  0
  1  3  1  0  0  0
  1  4  1  0  0  0
  1  5  1  0  0  0
  6  7  1  0  0  0
  6  8  1  0  0  0
M  END
$$$$
