


  8  6  0  0  1  0            999 V2000
    0.0000    0.0000    0.0000 C   0  0  0  0  0  0
    1.0839    0.1449    0.1187 H   0  0  0  0  0  0
   -0.4823    0.9714   -0.1836 H   0  0  0  0  0  0
   -0.1895   -0.6703   -0.8514 H   0  0  0  0  0  0
   -0.4128   -0.4466    0.9166 H   0  0  0  0  0  0
    1.4090    1.3455    2.3958 O   0  0  0  0  0  0
    1.9761    1.6313    1.6442 H   0  0  0  0  0  0
    0.6847    2.0108    2.4271 H   0  0  0  0  0  0
  1  2  1  0  0  0
  1  3  1  0  0  0
  1  4  1  0  0  0
  1  5  1  0  0  0
  6  7  1  0  0  0
  6  8  1  0  0  0
M  END
$$$$
