


  8  6  0  0  1  0            999 V2000
    0.0000    0.0000    0.0000 C   0  0  0  0  0  0
    0.9568    0.5401    0.0533 H   0  0  0  0  0  0
   -0.7272    0.4737    0.6758 H   0  0  0  0  0  0
   -0.3826    0.0320   -1.0308 H   0  0  0  0  0  0
    0.1526   -1.0468    0.3016 H   0  0  0  0  0  0
   -3.0307    0.2120   -4.6444 O   0  0  0  0  0  0
   -2.5469    0.3789   -5.4848 H   0  0  0  0  0  0
   -3.1465    1.1032   -4.2436 H   0  0  0  0  0  0
  1  2  1  0  0  0
  1  3  1  0  0  0
  1  4  1  0  0  0
  1  5  1  0  0  0
  6  7  1  0  0  0
  6  8  1  0  0  0
M  END
$$$$
