


  8  6  0  0  1  0            999 V2000
    0.0000    0.0000    0.0000 C   0  0  0  0  0  0
    0.4259    0.6592   -0.7708 H   0  0  0  0  0  0
   -1.0092    0.3486    0.2645 H   0  0  0  0  0  0
   -0.0569   -1.0281   -0.3870 H   0  0  0  0  0  0
    0.6405    0.0198    0.8941 H   0  0  0  0  0  0
   -1.6628   -4.8318    1.9173 O   0  0  0  0  0  0
   -1.3354   -4.3780    1.1079 H   0  0  0  0  0  0
   -2.4947   -5.2745    1.6340 H   0  0  0  0  0  0
  1  2  1  0  0  0
  1  3  1  0  0  0
  1  4  1  0  0  0
  1  5  1  0  0  0
  6  7  1  0  0  0
  6  8  1  0  0  0
M  END
$$$$
