


 27 25  0  0  1  0            999 V2000
   -2.1433    0.7477   -0.3661 C   0  0  0  0  0  0
   -0.7933    1.4422   -0.1822 C   0  0  0  0  0  0
    0.3160    0.5661    0.1980 N   0  0  0  0  0  0
   -2.0718   -0.0179   -1.1569 H   0  0  0  0  0  0
   -2.9213    1.4760   -0.6508 H   0  0  0  0  0  0
   -2.4484    0.2560    0.5729 H   0  0  0  0  0  0
   -0.5081    1.9463   -1.1256 H   0  0  0  0  0  0
   -0.8839    2.2196    0.6007 H   0  0  0  0  0  0
    0.4376   -0.1680   -0.5084 H   0  0  0  0  0  0
    0.0928    0.0828    1.0751 H   0  0  0  0  0  0
    4.3635    1.6912    0.9044 C   0  0  0  0  0  0
    3.9358    3.0838    0.5896 N   0  0  0  0  0  0
    5.1061    4.0000    0.7006 C   0  0  0  0  0  0
    3.3943    3.1355   -0.7980 C   0  0  0  0  0  0
    2.8794    3.5085    1.5513 C   0  0  0  0  0  0
    5.1461    1.3622    0.2002 H   0  0  0  0  0  0
    3.5071    1.0005    0.8264 H   0  0  0  0  0  0
    4.7671    1.6368    1.9295 H   0  0  0  0  0  0
    5.8974    3.6981   -0.0060 H   0  0  0  0  0  0
    4.8050    5.0358    0.4702 H   0  0  0  0  0  0
    5.5184    3.9727    1.7233 H   0  0  0  0  0  0
    2.5265    2.4617   -0.8960 H   0  0  0  0  0  0
    3.0731    4.1611   -1.0460 H   0  0  0  0  0  0
    4.1655    2.8235   -1.5222 H   0  0  0  0  0  0
    2.0056    2.8391    1.4809 H   0  0  0  0  0  0
    3.2656    3.4754    2.5840 H   0  0  0  0  0  0
    2.5522    4.5385    1.3309 H   0  0  0  0  0  0
  1  2  1  0  0  0
  2  3  1  0  0  0
  1  4  1  0  0  0
  1  5  1  0  0  0
  1  6  1  0  0  0
  2  7  1  0  0  0
  2  8  1  0  0  0
  3  9  1  0  0  0
  3 10  1  0  0  0
 11 12  1  0  0  0
 12 13  1  0  0  0
 12 14  1  0  0  0
 12 15  1  0  0  0
 11 16  1  0  0  0
 11 17  1  0  0  0
 11 18  1  0  0  0
 13 19  1  0  0  0
 13 20  1  0  0  0
 13 21  1  0  0  0
 14 22  1  0  0  0
 14 23  1  0  0  0
 14 24  1  0  0  0
 15 25  1  0  0  0
 15 26  1  0  0  0
 15 27  1  0  0  0
M  CHG  1  12   1
M  END
$$$$
