


  6  4  0  0  1  0            999 V2000
    2.8383    2.5995   -4.7695 O   0  0  0  0  0  0
    3.6286    3.1355   -4.5318 H   0  0  0  0  0  0
    2.8523    1.8440   -4.1393 H   0  0  0  0  0  0
    0.0000    0.0000    0.0000 S   0  0  0  0  0  0
    0.0790   -1.3435    0.0238 H   0  0  0  0  0  0
   -0.5319   -0.0014   -1.2364 H   0  0  0  0  0  0
  1  2  1  0  0  0
  1  3  1  0  0  0
  4  5  1  0  0  0
  4  6  1  0  0  0
M  END
$$$$
