


  6  4  0  0  1  0            999 V2000
    1.3597   -0.0646    2.7997 O   0  0  0  0  0  0
    0.4943   -0.3002    3.2046 H   0  0  0  0  0  0
    1.1246    0.4293    1.9818 H   0  0  0  0  0  0
   -0.3118   -0.0096   -0.6266 S   0  0  0  0  0  0
   -1.1428   -0.3978    0.3586 H   0  0  0  0  0  0
   -1.1542    0.9617   -1.0250 H   0  0  0  0  0  0
  1  2  1  0  0  0
  1  3  1  0  0  0
  4  5  1  0  0  0
  4  6  1  0  0  0
M  END
$$$$
