


  6  4  0  0  1  0            999 V2000
   -0.2828   -3.0700   -2.1288 O   0  0  0  0  0  0
   -0.6398   -3.6035   -1.3831 H   0  0  0  0  0  0
   -0.9912   -2.4167   -2.3280 H   0  0  0  0  0  0
    0.0156    0.1613    0.1173 S   0  0  0  0  0  0
   -0.0400   -1.1515   -0.1748 H   0  0  0  0  0  0
   -0.9156    0.4595   -0.8078 H   0  0  0  0  0  0
  1  2  1  0  0  0
  1  3  1  0  0  0
  4  5  1  0  0  0
  4  6  1  0  0  0
M  END
$$$$
