


  6  4  0  0  1  0            999 V2000
   -3.5446   -1.1964    0.5496 O   0  0  0  0  0  0
   -4.5037   -1.3541    0.7032 H   0  0  0  0  0  0
   -3.3681   -1.5856   -0.3367 H   0  0  0  0  0  0
    0.5753    0.1614   -0.0545 S   0  0  0  0  0  0
   -0.4106   -0.7113    0.2252 H   0  0  0  0  0  0
    0.2575    0.9375    0.9983 H   0  0  0  0  0  0
  1  2  1  0  0  0
  1  3  1  0  0  0
  4  5  1  0  0  0
  4  6  1  0  0  0
M  END
$$$$
