


  6  4  0  0  1  0            999 V2000
    3.1617    0.7238   -2.5206 O   0  0  0  0  0  0
    2.7189    1.4846   -2.0809 H   0  0  0  0  0  0
    2.4451    0.0625   -2.6528 H   0  0  0  0  0  0
    0.2950    0.0613   -0.2631 S   0  0  0  0  0  0
   -0.4207    0.7464   -1.1742 H   0  0  0  0  0  0
    1.4594    0.5315   -0.7477 H   0  0  0  0  0  0
  1  2  1  0  0  0
  1  3  1  0  0  0
  4  5  1  0  0  0
  4  6  1  0  0  0
M  END
$$$$
