


  6  4  0  0  1  0            999 V2000
   -3.0115    0.8859    0.8936 O   0  0  0  0  0  0
   -3.7042    0.2941    1.2652 H   0  0  0  0  0  0
   -3.1579    0.8590   -0.0791 H   0  0  0  0  0  0
    0.0903   -0.0354   -0.0244 S   0  0  0  0  0  0
   -0.9879   -0.7790    0.2860 H   0  0  0  0  0  0
    0.9092   -1.1016    0.0419 H   0  0  0  0  0  0
  1  2  1  0  0  0
  1  3  1  0  0  0
  4  5  1  0  0  0
  4  6  1  0  0  0
M  END
$$$$
