


  6  4  0  0  1  0            999 V2000
    3.9201   -0.3998   -0.9438 O   0  0  0  0  0  0
    3.0412   -0.8248   -1.0673 H   0  0  0  0  0  0
    4.2863   -0.8187   -0.1322 H   0  0  0  0  0  0
    1.3693   -0.1746   -0.2334 S   0  0  0  0  0  0
    2.1187   -0.7207   -1.2090 H   0  0  0  0  0  0
    2.1509    0.9197   -0.1743 H   0  0  0  0  0  0
  1  2  1  0  0  0
  1  3  1  0  0  0
  4  5  1  0  0  0
  4  6  1  0  0  0
M  END
$$$$
