


  6  4  0  0  1  0            999 V2000
    3.7472    0.7318   -0.2969 O   0  0  0  0  0  0
    2.9599    0.8794   -0.8683 H   0  0  0  0  0  0
    3.4029    0.2266    0.4741 H   0  0  0  0  0  0
    0.8848    0.1287   -0.1024 S   0  0  0  0  0  0
   -0.1374    0.9940   -0.2374 H   0  0  0  0  0  0
    1.5697    0.9801    0.6836 H   0  0  0  0  0  0
  1  2  1  0  0  0
  1  3  1  0  0  0
  4  5  1  0  0  0
  4  6  1  0  0  0
M  END
$$$$
