


  6  4  0  0  1  0            999 V2000
   -3.5083   -1.3258   -0.6931 O   0  0  0  0  0  0
   -3.3056   -1.2653    0.2679 H   0  0  0  0  0  0
   -3.9871   -0.4911   -0.8986 H   0  0  0  0  0  0
   -0.4719   -0.1454   -0.0783 S   0  0  0  0  0  0
   -1.4037    0.8220   -0.1660 H   0  0  0  0  0  0
   -1.3952   -1.1174   -0.1984 H   0  0  0  0  0  0
  1  2  1  0  0  0
  1  3  1  0  0  0
  4  5  1  0  0  0
  4  6  1  0  0  0
M  END
$$$$
