


  6  4  0  0  1  0            999 V2000
    3.4766    3.4724   -2.1999 O   0  0  0  0  0  0
    3.3752    3.8182   -1.2843 H   0  0  0  0  0  0
    2.5570    3.2920   -2.5001 H   0  0  0  0  0  0
    0.0000    0.0000    0.0000 S   0  0  0  0  0  0
   -1.1817    0.1126    0.6345 H   0  0  0  0  0  0
   -0.0310    1.2862   -0.3956 H   0  0  0  0  0  0
  1  2  1  0  0  0
  1  3  1  0  0  0
  4  5  1  0  0  0
  4  6  1  0  0  0
M  END
$$$$
