


  6  4  0  0  1  0            999 V2000
    4.0622   -2.7468   -2.7399 O   0  0  0  0  0  0
    4.1848   -2.7936   -1.7647 H   0  0  0  0  0  0
    3.8002   -3.6586   -3.0011 H   0  0  0  0  0  0
    0.0000    0.0000    0.0000 S   0  0  0  0  0  0
   -1.0782   -0.7436    0.3104 H   0  0  0  0  0  0
    0.8189   -1.0662    0.0663 H   0  0  0  0  0  0
  1  2  1  0  0  0
  1  3  1  0  0  0
  4  5  1  0  0  0
  4  6  1  0  0  0
M  END
$$$$
