


  6  4  0  0  1  0            999 V2000
   -2.0466    1.9465    2.4233 O   0  0  0  0  0  0
   -2.8352    1.4202    2.1600 H   0  0  0  0  0  0
   -1.9012    1.7191    3.3695 H   0  0  0  0  0  0
   -0.3830    0.3832    0.4432 S   0  0  0  0  0  0
    0.0989    1.6236    0.6461 H   0  0  0  0  0  0
   -1.3323    0.5421    1.3841 H   0  0  0  0  0  0
  1  2  1  0  0  0
  1  3  1  0  0  0
  4  5  1  0  0  0
  4  6  1  0  0  0
M  END
$$$$
