


  6  4  0  0  1  0            999 V2000
   -3.3094    0.1513    1.8046 O   0  0  0  0  0  0
   -4.0771    0.4545    1.2690 H   0  0  0  0  0  0
   -2.7374    0.9473    1.8911 H   0  0  0  0  0  0
   -1.0171    0.0798    0.6318 S   0  0  0  0  0  0
   -2.1879    0.3615    0.0304 H   0  0  0  0  0  0
   -0.9764   -1.1522    0.0911 H   0  0  0  0  0  0
  1  2  1  0  0  0
  1  3  1  0  0  0
  4  5  1  0  0  0
  4  6  1  0  0  0
M  END
$$$$
