


  6  4  0  0  1  0            999 V2000
    0.2165    3.3553    2.1655 O   0  0  0  0  0  0
    0.4092    4.2841    2.4268 H   0  0  0  0  0  0
    0.7843    3.1964    1.3777 H   0  0  0  0  0  0
   -0.0238   -0.4228   -0.2659 S   0  0  0  0  0  0
    0.3119    0.7293    0.3438 H   0  0  0  0  0  0
    0.0184    0.1490   -1.4837 H   0  0  0  0  0  0
  1  2  1  0  0  0
  1  3  1  0  0  0
  4  5  1  0  0  0
  4  6  1  0  0  0
M  END
$$$$
