


  6  4  0  0  1  0            999 V2000
    1.6658    3.1557    2.4585 O   0  0  0  0  0  0
    2.1646    2.3529    2.7324 H   0  0  0  0  0  0
    1.0723    3.3504    3.2189 H   0  0  0  0  0  0
    0.0000    0.0000    0.0000 S   0  0  0  0  0  0
   -1.0782   -0.7436    0.3104 H   0  0  0  0  0  0
    0.8189   -1.0662    0.0663 H   0  0  0  0  0  0
  1  2  1  0  0  0
  1  3  1  0  0  0
  4  5  1  0  0  0
  4  6  1  0  0  0
M  END
$$$$
