


  6  4  0  0  1  0            999 V2000
    3.2699    1.0261    0.3689 O   0  0  0  0  0  0
    2.7222    1.4522    1.0665 H   0  0  0  0  0  0
    4.1860    1.0435    0.7277 H   0  0  0  0  0  0
   -0.6687   -0.1865   -0.0896 S   0  0  0  0  0  0
   -1.4307    0.2289   -1.1185 H   0  0  0  0  0  0
   -0.7523    1.0092    0.5227 H   0  0  0  0  0  0
  1  2  1  0  0  0
  1  3  1  0  0  0
  4  5  1  0  0  0
  4  6  1  0  0  0
M  END
$$$$
