


  6  4  0  0  1  0            999 V2000
    1.5828    3.2678    1.5965 O   0  0  0  0  0  0
    0.9249    3.5817    0.9356 H   0  0  0  0  0  0
    2.1540    4.0504    1.7688 H   0  0  0  0  0  0
    0.0000    0.0000    0.0000 S   0  0  0  0  0  0
    0.0790   -1.3435    0.0238 H   0  0  0  0  0  0
   -0.5319   -0.0014   -1.2364 H   0  0  0  0  0  0
  1  2  1  0  0  0
  1  3  1  0  0  0
  4  5  1  0  0  0
  4  6  1  0  0  0
M  END
$$$$
