


  6  4  0  0  1  0            999 V2000
   -2.5935   -0.7447    2.1745 O   0  0  0  0  0  0
   -2.3961    0.1766    1.8908 H   0  0  0  0  0  0
   -1.9520   -1.3004    1.6765 H   0  0  0  0  0  0
    0.0742    0.0189   -0.0644 S   0  0  0  0  0  0
   -0.2436   -1.2686   -0.2952 H   0  0  0  0  0  0
    1.3708   -0.2828    0.1344 H   0  0  0  0  0  0
  1  2  1  0  0  0
  1  3  1  0  0  0
  4  5  1  0  0  0
  4  6  1  0  0  0
M  END
$$$$
