


  6  4  0  0  1  0            999 V2000
    1.3953   -3.4452    0.4128 O   0  0  0  0  0  0
    0.6329   -4.0632    0.3420 H   0  0  0  0  0  0
    1.0142   -2.5583    0.2221 H   0  0  0  0  0  0
    0.2081   -0.5570    0.0807 S   0  0  0  0  0  0
   -0.7641   -0.6347   -0.8470 H   0  0  0  0  0  0
    1.1756   -0.6386   -0.8514 H   0  0  0  0  0  0
  1  2  1  0  0  0
  1  3  1  0  0  0
  4  5  1  0  0  0
  4  6  1  0  0  0
M  END
$$$$
