


  6  4  0  0  1  0            999 V2000
   -0.0951    0.6482   -4.3585 O   0  0  0  0  0  0
    0.2560   -0.0528   -3.7639 H   0  0  0  0  0  0
    0.6097    1.3346   -4.3759 H   0  0  0  0  0  0
   -0.0027    0.1034   -1.4964 S   0  0  0  0  0  0
    0.3331    1.2554   -0.8867 H   0  0  0  0  0  0
    0.0396    0.6752   -2.7142 H   0  0  0  0  0  0
  1  2  1  0  0  0
  1  3  1  0  0  0
  4  5  1  0  0  0
  4  6  1  0  0  0
M  END
$$$$
