


 21 19  0  0  1  0            999 V2000
    0.5645    4.2338    3.9167 C   0  0  0  0  0  0
    0.6198    3.9849    2.4391 C   0  0  0  0  0  0
    0.9205    2.9439    1.8987 O   0  0  0  0  0  0
    0.2816    5.1010    1.7413 O   0  0  0  0  0  0
    0.8412    3.3195    4.4682 H   0  0  0  0  0  0
   -0.4538    4.5318    4.2182 H   0  0  0  0  0  0
    1.2642    5.0391    4.1970 H   0  0  0  0  0  0
    0.3464    4.8415    0.7818 H   0  0  0  0  0  0
    2.3729   -2.2164    1.6922 C   0  0  0  0  0  0
    2.0582   -1.1715    0.7232 N   0  0  0  0  0  0
    1.7165    0.0688    1.0539 C   0  0  0  0  0  0
    1.4422    0.9717    0.1053 N   0  0  0  0  0  0
    1.4951    0.7082   -0.8818 H   0  0  0  0  0  0
    1.1796    1.9253    0.3667 H   0  0  0  0  0  0
    1.6461    0.4174    2.3404 N   0  0  0  0  0  0
    2.6203   -3.1383    1.1394 H   0  0  0  0  0  0
    1.5144   -2.4223    2.3533 H   0  0  0  0  0  0
    3.2385   -1.9374    2.3163 H   0  0  0  0  0  0
    2.1024   -1.4046   -0.2719 H   0  0  0  0  0  0
    1.8552   -0.2706    3.0680 H   0  0  0  0  0  0
    1.3833    1.3716    2.5990 H   0  0  0  0  0  0
  1  2  1  0  0  0
  2  3  2  0  0  0
  2  4  1  0  0  0
  1  5  1  0  0  0
  1  6  1  0  0  0
  1  7  1  0  0  0
  4  8  1  0  0  0
  9 10  1  0  0  0
 10 11  1  0  0  0
 11 12  2  0  0  0
 12 13  1  0  0  0
 12 14  1  0  0  0
 11 15  1  0  0  0
  9 16  1  0  0  0
  9 17  1  0  0  0
  9 18  1  0  0  0
 10 19  1  0  0  0
 15 20  1  0  0  0
 15 21  1  0  0  0
M  CHG  1  12   1
M  END
$$$$
