


 15 13  0  0  1  0            999 V2000
    0.5651    0.6668    1.0810 C   0  0  0  0  0  0
   -0.2221    1.2189    2.2724 C   0  0  0  0  0  0
    0.8361    1.4824    0.3897 H   0  0  0  0  0  0
   -0.0403   -0.0736    0.5316 H   0  0  0  0  0  0
    1.4908    0.1770    1.4273 H   0  0  0  0  0  0
    0.3833    1.9592    2.8218 H   0  0  0  0  0  0
   -1.1478    1.7087    1.9261 H   0  0  0  0  0  0
   -0.4931    0.4033    2.9637 H   0  0  0  0  0  0
    1.1291    3.3202    1.0321 O   0  0  0  0  0  0
    2.0082    2.6821    1.6737 C   0  0  0  0  0  0
    2.0005    2.3260    2.8839 O   0  0  0  0  0  0
    3.2527    2.2444    0.8531 C   0  0  0  0  0  0
    3.0536    1.2524    0.4140 H   0  0  0  0  0  0
    3.4614    2.9553    0.0360 H   0  0  0  0  0  0
    4.1475    2.1724    1.4940 H   0  0  0  0  0  0
  1  2  1  0  0  0
  1  3  1  0  0  0
  1  4  1  0  0  0
  1  5  1  0  0  0
  2  6  1  0  0  0
  2  7  1  0  0  0
  2  8  1  0  0  0
  9 10  1  0  0  0
 10 11  2  0  0  0
 10 12  1  0  0  0
 12 13  1  0  0  0
 12 14  1  0  0  0
 12 15  1  0  0  0
M  CHG  1   9  -1
M  END
$$$$
