


 28 26  0  0  1  0            999 V2000
   -2.2794   -2.0576   -3.1404 C   0  0  0  0  0  0
   -1.4426   -1.3184   -4.2210 C   0  0  0  0  0  0
   -2.1576   -0.1883   -4.9741 C   0  0  0  0  0  0
   -3.2180   -0.6187   -6.0227 C   0  0  0  0  0  0
   -2.4339   -1.3226   -2.3326 H   0  0  0  0  0  0
   -1.8836   -2.9876   -2.6989 H   0  0  0  0  0  0
   -3.2542   -2.2770   -3.6076 H   0  0  0  0  0  0
   -0.5339   -0.9789   -3.6876 H   0  0  0  0  0  0
   -1.1245   -2.0246   -5.0119 H   0  0  0  0  0  0
   -2.6426    0.3766   -4.1548 H   0  0  0  0  0  0
   -1.3400    0.4394   -5.3777 H   0  0  0  0  0  0
   -2.7246   -1.2413   -6.7880 H   0  0  0  0  0  0
   -3.6163    0.2873   -6.5096 H   0  0  0  0  0  0
   -4.0607   -1.1880   -5.5957 H   0  0  0  0  0  0
    1.3862   -3.5828    5.7009 C   0  0  0  0  0  0
    2.8470   -3.0180    5.9722 C   0  0  0  0  0  0
    3.4363   -2.5044    4.6648 C   0  0  0  0  0  0
    4.9038   -2.1365    4.9149 C   0  0  0  0  0  0
    0.8544   -3.6168    6.6666 H   0  0  0  0  0  0
    1.4367   -4.6054    5.2907 H   0  0  0  0  0  0
    0.8093   -2.9522    5.0036 H   0  0  0  0  0  0
    2.9012   -2.1356    6.6385 H   0  0  0  0  0  0
    3.4102   -3.8395    6.4552 H   0  0  0  0  0  0
    3.2806   -3.1980    3.8162 H   0  0  0  0  0  0
    2.9314   -1.5509    4.4172 H   0  0  0  0  0  0
    5.5887   -2.9973    4.9956 H   0  0  0  0  0  0
    4.9928   -1.5290    5.8313 H   0  0  0  0  0  0
    5.2124   -1.5209    4.0533 H   0  0  0  0  0  0
  1  2  1  0  0  0
  2  3  1  0  0  0
  3  4  1  0  0  0
  1  5  1  0  0  0
  1  6  1  0  0  0
  1  7  1  0  0  0
  2  8  1  0  0  0
  2  9  1  0  0  0
  3 10  1  0  0  0
  3 11  1  0  0  0
  4 12  1  0  0  0
  4 13  1  0  0  0
  4 14  1  0  0  0
 15 16  1  0  0  0
 16 17  1  0  0  0
 17 18  1  0  0  0
 15 19  1  0  0  0
 15 20  1  0  0  0
 15 21  1  0  0  0
 16 22  1  0  0  0
 16 23  1  0  0  0
 17 24  1  0  0  0
 17 25  1  0  0  0
 18 26  1  0  0  0
 18 27  1  0  0  0
 18 28  1  0  0  0
M  END
$$$$
