


 28 26  0  0  1  0            999 V2000
   -9.1239    9.6831    3.8683 C   0  0  0  0  0  0
   -9.2272    9.4825    2.3040 C   0  0  0  0  0  0
   -8.8907   10.7704    1.4513 C   0  0  0  0  0  0
   -7.5347   11.3992    1.7427 C   0  0  0  0  0  0
   -9.9627   10.3301    4.1756 H   0  0  0  0  0  0
   -8.1775   10.1952    4.1103 H   0  0  0  0  0  0
   -9.1737    8.7445    4.4456 H   0  0  0  0  0  0
   -8.5377    8.6948    1.9439 H   0  0  0  0  0  0
  -10.2617    9.1351    2.1177 H   0  0  0  0  0  0
   -8.9710   10.6341    0.3557 H   0  0  0  0  0  0
   -9.5610   11.6039    1.7368 H   0  0  0  0  0  0
   -7.1959   11.9832    0.8706 H   0  0  0  0  0  0
   -6.7497   10.6698    2.0042 H   0  0  0  0  0  0
   -7.6737   12.0867    2.5940 H   0  0  0  0  0  0
   -6.1187   10.1773    6.4920 C   0  0  0  0  0  0
   -4.6552   10.7443    6.3321 C   0  0  0  0  0  0
   -4.0048   10.0990    5.1161 C   0  0  0  0  0  0
   -2.6355   10.6249    4.7620 C   0  0  0  0  0  0
   -6.5618   10.4830    7.4547 H   0  0  0  0  0  0
   -6.1130    9.0755    6.4414 H   0  0  0  0  0  0
   -6.7512   10.5637    5.6751 H   0  0  0  0  0  0
   -4.6170   11.8466    6.2378 H   0  0  0  0  0  0
   -4.0494   10.4608    7.2142 H   0  0  0  0  0  0
   -3.8033    9.0233    5.2825 H   0  0  0  0  0  0
   -4.7187   10.1814    4.2741 H   0  0  0  0  0  0
   -2.7077   11.6898    4.4837 H   0  0  0  0  0  0
   -2.2111   10.0668    3.9104 H   0  0  0  0  0  0
   -1.9497   10.5313    5.6207 H   0  0  0  0  0  0
  1  2  1  0  0  0
  2  3  1  0  0  0
  3  4  1  0  0  0
  1  5  1  0  0  0
  1  6  1  0  0  0
  1  7  1  0  0  0
  2  8  1  0  0  0
  2  9  1  0  0  0
  3 10  1  0  0  0
  3 11  1  0  0  0
  4 12  1  0  0  0
  4 13  1  0  0  0
  4 14  1  0  0  0
 15 16  1  0  0  0
 16 17  1  0  0  0
 17 18  1  0  0  0
 15 19  1  0  0  0
 15 20  1  0  0  0
 15 21  1  0  0  0
 16 22  1  0  0  0
 16 23  1  0  0  0
 17 24  1  0  0  0
 17 25  1  0  0  0
 18 26  1  0  0  0
 18 27  1  0  0  0
 18 28  1  0  0  0
M  END
$$$$
