


 28 26  0  0  1  0            999 V2000
   -2.6706    2.7251   -4.6066 C   0  0  0  0  0  0
   -3.9047    2.0465   -4.1320 C   0  0  0  0  0  0
   -3.6604    0.8194   -3.2236 C   0  0  0  0  0  0
   -4.9108    0.1452   -2.6282 C   0  0  0  0  0  0
   -2.0428    2.0215   -5.1789 H   0  0  0  0  0  0
   -2.0930    3.0864   -3.7392 H   0  0  0  0  0  0
   -2.9118    3.5864   -5.2521 H   0  0  0  0  0  0
   -4.5455    2.7915   -3.6224 H   0  0  0  0  0  0
   -4.4342    1.7165   -5.0465 H   0  0  0  0  0  0
   -2.9997    0.0593   -3.6834 H   0  0  0  0  0  0
   -3.1115    1.2744   -2.3768 H   0  0  0  0  0  0
   -4.6072   -0.4974   -1.7847 H   0  0  0  0  0  0
   -5.3499   -0.4910   -3.4149 H   0  0  0  0  0  0
   -5.6823    0.8495   -2.2740 H   0  0  0  0  0  0
   -4.6219   -3.7674   -4.2944 C   0  0  0  0  0  0
   -4.3385   -5.1649   -3.6939 C   0  0  0  0  0  0
   -3.2073   -5.2214   -2.6860 C   0  0  0  0  0  0
   -2.9440   -6.6937   -2.3803 C   0  0  0  0  0  0
   -5.3521   -3.8544   -5.1165 H   0  0  0  0  0  0
   -3.7501   -3.1974   -4.6571 H   0  0  0  0  0  0
   -5.0889   -3.2074   -3.4668 H   0  0  0  0  0  0
   -5.3143   -5.4593   -3.2619 H   0  0  0  0  0  0
   -4.1028   -5.8762   -4.5087 H   0  0  0  0  0  0
   -2.3532   -4.6911   -3.1495 H   0  0  0  0  0  0
   -3.4610   -4.6941   -1.7463 H   0  0  0  0  0  0
   -2.0624   -6.8553   -1.7375 H   0  0  0  0  0  0
   -2.7949   -7.2411   -3.3261 H   0  0  0  0  0  0
   -3.8311   -7.1063   -1.8710 H   0  0  0  0  0  0
  1  2  1  0  0  0
  2  3  1  0  0  0
  3  4  1  0  0  0
  1  5  1  0  0  0
  1  6  1  0  0  0
  1  7  1  0  0  0
  2  8  1  0  0  0
  2  9  1  0  0  0
  3 10  1  0  0  0
  3 11  1  0  0  0
  4 12  1  0  0  0
  4 13  1  0  0  0
  4 14  1  0  0  0
 15 16  1  0  0  0
 16 17  1  0  0  0
 17 18  1  0  0  0
 15 19  1  0  0  0
 15 20  1  0  0  0
 15 21  1  0  0  0
 16 22  1  0  0  0
 16 23  1  0  0  0
 17 24  1  0  0  0
 17 25  1  0  0  0
 18 26  1  0  0  0
 18 27  1  0  0  0
 18 28  1  0  0  0
M  END
$$$$
