


 28 26  0  0  1  0            999 V2000
   -2.2743   -6.4199    2.1499 C   0  0  0  0  0  0
   -0.8019   -6.7070    2.4549 C   0  0  0  0  0  0
    0.2105   -5.8016    1.6778 C   0  0  0  0  0  0
    0.2368   -4.3860    2.2397 C   0  0  0  0  0  0
   -2.5813   -6.9183    1.2151 H   0  0  0  0  0  0
   -2.4927   -5.3423    2.0622 H   0  0  0  0  0  0
   -2.8702   -6.8331    2.9810 H   0  0  0  0  0  0
   -0.6397   -6.7535    3.5489 H   0  0  0  0  0  0
   -0.6460   -7.7246    2.0480 H   0  0  0  0  0  0
    1.2022   -6.2934    1.6757 H   0  0  0  0  0  0
   -0.1126   -5.6910    0.6248 H   0  0  0  0  0  0
    0.2308   -4.2915    3.3386 H   0  0  0  0  0  0
   -0.5067   -3.6863    1.8223 H   0  0  0  0  0  0
    1.2354   -4.1013    1.8676 H   0  0  0  0  0  0
   -1.1996   -3.3282    6.3113 C   0  0  0  0  0  0
   -2.2319   -3.5734    5.2331 C   0  0  0  0  0  0
   -3.4414   -2.6795    5.3544 C   0  0  0  0  0  0
   -4.3933   -2.7971    4.1333 C   0  0  0  0  0  0
   -0.8118   -2.2993    6.2241 H   0  0  0  0  0  0
   -0.3669   -4.0330    6.1484 H   0  0  0  0  0  0
   -1.5877   -3.4724    7.3337 H   0  0  0  0  0  0
   -1.6823   -3.4460    4.2806 H   0  0  0  0  0  0
   -2.4714   -4.6487    5.3422 H   0  0  0  0  0  0
   -4.0390   -3.0114    6.2252 H   0  0  0  0  0  0
   -3.1352   -1.6314    5.5362 H   0  0  0  0  0  0
   -5.1640   -3.5572    4.3451 H   0  0  0  0  0  0
   -3.9427   -3.0172    3.1509 H   0  0  0  0  0  0
   -4.8790   -1.8080    4.0839 H   0  0  0  0  0  0
  1  2  1  0  0  0
  2  3  1  0  0  0
  3  4  1  0  0  0
  1  5  1  0  0  0
  1  6  1  0  0  0
  1  7  1  0  0  0
  2  8  1  0  0  0
  2  9  1  0  0  0
  3 10  1  0  0  0
  3 11  1  0  0  0
  4 12  1  0  0  0
  4 13  1  0  0  0
  4 14  1  0  0  0
 15 16  1  0  0  0
 16 17  1  0  0  0
 17 18  1  0  0  0
 15 19  1  0  0  0
 15 20  1  0  0  0
 15 21  1  0  0  0
 16 22  1  0  0  0
 16 23  1  0  0  0
 17 24  1  0  0  0
 17 25  1  0  0  0
 18 26  1  0  0  0
 18 27  1  0  0  0
 18 28  1  0  0  0
M  END
$$$$
