


 28 26  0  0  1  0            999 V2000
    1.3464   -1.2011    5.7496 C   0  0  0  0  0  0
    0.9436   -0.4747    7.0517 C   0  0  0  0  0  0
    1.2262    1.0158    6.9348 C   0  0  0  0  0  0
    1.3110    1.7525    8.2429 C   0  0  0  0  0  0
    1.5677   -2.2667    5.9287 H   0  0  0  0  0  0
    2.2204   -0.7373    5.2620 H   0  0  0  0  0  0
    0.4837   -1.1310    5.0658 H   0  0  0  0  0  0
   -0.0937   -0.6586    7.3917 H   0  0  0  0  0  0
    1.6263   -0.8227    7.8505 H   0  0  0  0  0  0
    2.2172    1.0900    6.4472 H   0  0  0  0  0  0
    0.4836    1.4847    6.2609 H   0  0  0  0  0  0
    0.3437    1.6141    8.7546 H   0  0  0  0  0  0
    1.4888    2.8333    8.1128 H   0  0  0  0  0  0
    2.1093    1.3390    8.8818 H   0  0  0  0  0  0
   -2.6324   -1.9502    5.1606 C   0  0  0  0  0  0
   -2.7277   -3.2797    5.9901 C   0  0  0  0  0  0
   -1.4956   -3.4985    6.9058 C   0  0  0  0  0  0
   -1.3538   -4.8606    7.5041 C   0  0  0  0  0  0
   -1.9964   -2.0682    4.2673 H   0  0  0  0  0  0
   -2.2110   -1.1475    5.7890 H   0  0  0  0  0  0
   -3.6427   -1.6492    4.8360 H   0  0  0  0  0  0
   -3.6727   -3.2977    6.5664 H   0  0  0  0  0  0
   -2.8070   -4.0407    5.1900 H   0  0  0  0  0  0
   -0.6563   -3.3187    6.2067 H   0  0  0  0  0  0
   -1.3528   -2.8356    7.7808 H   0  0  0  0  0  0
   -2.0557   -5.0521    8.3331 H   0  0  0  0  0  0
   -0.3309   -5.0858    7.8501 H   0  0  0  0  0  0
   -1.6006   -5.5392    6.6703 H   0  0  0  0  0  0
  1  2  1  0  0  0
  2  3  1  0  0  0
  3  4  1  0  0  0
  1  5  1  0  0  0
  1  6  1  0  0  0
  1  7  1  0  0  0
  2  8  1  0  0  0
  2  9  1  0  0  0
  3 10  1  0  0  0
  3 11  1  0  0  0
  4 12  1  0  0  0
  4 13  1  0  0  0
  4 14  1  0  0  0
 15 16  1  0  0  0
 16 17  1  0  0  0
 17 18  1  0  0  0
 15 19  1  0  0  0
 15 20  1  0  0  0
 15 21  1  0  0  0
 16 22  1  0  0  0
 16 23  1  0  0  0
 17 24  1  0  0  0
 17 25  1  0  0  0
 18 26  1  0  0  0
 18 27  1  0  0  0
 18 28  1  0  0  0
M  END
$$$$
