


 28 26  0  0  1  0            999 V2000
   -7.9858   -6.0831   -3.0458 C   0  0  0  0  0  0
   -9.3245   -6.0742   -3.7694 C   0  0  0  0  0  0
   -9.1603   -6.6938   -5.1574 C   0  0  0  0  0  0
   -9.2805   -8.2457   -5.2001 C   0  0  0  0  0  0
   -7.4144   -5.2630   -3.5124 H   0  0  0  0  0  0
   -7.3838   -7.0058   -3.0988 H   0  0  0  0  0  0
   -8.1557   -5.8342   -1.9848 H   0  0  0  0  0  0
  -10.0289   -6.6611   -3.1491 H   0  0  0  0  0  0
   -9.7227   -5.0443   -3.8477 H   0  0  0  0  0  0
   -9.8502   -6.2240   -5.8845 H   0  0  0  0  0  0
   -8.1262   -6.4523   -5.4701 H   0  0  0  0  0  0
  -10.3170   -8.5426   -4.9676 H   0  0  0  0  0  0
   -8.6133   -8.6624   -4.4269 H   0  0  0  0  0  0
   -9.0012   -8.6777   -6.1758 H   0  0  0  0  0  0
   -6.8870    1.4163   -5.9269 C   0  0  0  0  0  0
   -5.7001    2.2731   -5.4359 C   0  0  0  0  0  0
   -5.7788    2.6607   -3.9902 C   0  0  0  0  0  0
   -4.4800    3.4356   -3.7040 C   0  0  0  0  0  0
   -7.8720    1.9082   -5.9945 H   0  0  0  0  0  0
   -6.9774    0.5372   -5.2668 H   0  0  0  0  0  0
   -6.5959    1.0720   -6.9335 H   0  0  0  0  0  0
   -4.8854    1.5293   -5.5279 H   0  0  0  0  0  0
   -5.4766    3.1048   -6.1315 H   0  0  0  0  0  0
   -6.7131    3.2449   -3.8843 H   0  0  0  0  0  0
   -5.8871    1.7400   -3.3852 H   0  0  0  0  0  0
   -4.3371    3.8582   -2.6953 H   0  0  0  0  0  0
   -4.3432    4.2407   -4.4454 H   0  0  0  0  0  0
   -3.7094    2.6651   -3.8750 H   0  0  0  0  0  0
  1  2  1  0  0  0
  2  3  1  0  0  0
  3  4  1  0  0  0
  1  5  1  0  0  0
  1  6  1  0  0  0
  1  7  1  0  0  0
  2  8  1  0  0  0
  2  9  1  0  0  0
  3 10  1  0  0  0
  3 11  1  0  0  0
  4 12  1  0  0  0
  4 13  1  0  0  0
  4 14  1  0  0  0
 15 16  1  0  0  0
 16 17  1  0  0  0
 17 18  1  0  0  0
 15 19  1  0  0  0
 15 20  1  0  0  0
 15 21  1  0  0  0
 16 22  1  0  0  0
 16 23  1  0  0  0
 17 24  1  0  0  0
 17 25  1  0  0  0
 18 26  1  0  0  0
 18 27  1  0  0  0
 18 28  1  0  0  0
M  END
$$$$
