


 28 26  0  0  1  0            999 V2000
   -4.7263   -1.2598   -1.5481 C   0  0  0  0  0  0
   -5.7967   -0.2149   -1.4495 C   0  0  0  0  0  0
   -6.5422    0.1060   -2.7963 C   0  0  0  0  0  0
   -7.2575    1.4260   -2.8188 C   0  0  0  0  0  0
   -4.4336   -1.7268   -0.5926 H   0  0  0  0  0  0
   -3.8119   -0.9750   -2.0952 H   0  0  0  0  0  0
   -5.2784   -2.0027   -2.1481 H   0  0  0  0  0  0
   -6.5576   -0.6029   -0.7453 H   0  0  0  0  0  0
   -5.3953    0.7261   -1.0264 H   0  0  0  0  0  0
   -5.8038   -0.0580   -3.6046 H   0  0  0  0  0  0
   -7.3058   -0.6919   -2.8709 H   0  0  0  0  0  0
   -6.5356    2.2334   -2.6098 H   0  0  0  0  0  0
   -8.1155    1.5354   -2.1343 H   0  0  0  0  0  0
   -7.6182    1.5362   -3.8554 H   0  0  0  0  0  0
    0.7896    3.0048   -4.1511 C   0  0  0  0  0  0
   -0.5201    2.3258   -3.9578 C   0  0  0  0  0  0
   -1.2756    2.8633   -2.7302 C   0  0  0  0  0  0
   -2.7713    2.4987   -2.8431 C   0  0  0  0  0  0
    1.4318    2.9205   -3.2583 H   0  0  0  0  0  0
    0.5140    4.0641   -4.2874 H   0  0  0  0  0  0
    1.3663    2.6752   -5.0317 H   0  0  0  0  0  0
   -1.0923    2.5842   -4.8696 H   0  0  0  0  0  0
   -0.3085    1.2397   -3.9898 H   0  0  0  0  0  0
   -0.8484    2.4952   -1.7776 H   0  0  0  0  0  0
   -1.2207    3.9689   -2.7188 H   0  0  0  0  0  0
   -3.3163    3.0333   -3.6391 H   0  0  0  0  0  0
   -3.2355    2.7440   -1.8730 H   0  0  0  0  0  0
   -2.8705    1.4139   -3.0162 H   0  0  0  0  0  0
  1  2  1  0  0  0
  2  3  1  0  0  0
  3  4  1  0  0  0
  1  5  1  0  0  0
  1  6  1  0  0  0
  1  7  1  0  0  0
  2  8  1  0  0  0
  2  9  1  0  0  0
  3 10  1  0  0  0
  3 11  1  0  0  0
  4 12  1  0  0  0
  4 13  1  0  0  0
  4 14  1  0  0  0
 15 16  1  0  0  0
 16 17  1  0  0  0
 17 18  1  0  0  0
 15 19  1  0  0  0
 15 20  1  0  0  0
 15 21  1  0  0  0
 16 22  1  0  0  0
 16 23  1  0  0  0
 17 24  1  0  0  0
 17 25  1  0  0  0
 18 26  1  0  0  0
 18 27  1  0  0  0
 18 28  1  0  0  0
M  END
$$$$
