


 28 28  0  0  1  0            999 V2000
   -2.2141    1.7611    3.5961 O   0  0  0  0  0  0
   -2.3830    2.3951    2.3198 C   0  0  0  0  0  0
   -3.7121    3.2311    2.3167 C   0  0  0  0  0  0
   -3.6551    4.2641    3.3023 O   0  0  0  0  0  0
   -3.3375    3.6758    4.5764 C   0  0  0  0  0  0
   -2.1977    2.7589    4.6567 C   0  0  0  0  0  0
   -1.5174    3.0609    2.1385 H   0  0  0  0  0  0
   -2.4079    1.6461    1.5050 H   0  0  0  0  0  0
   -4.6073    2.6089    2.5089 H   0  0  0  0  0  0
   -3.9195    3.8527    1.4245 H   0  0  0  0  0  0
   -4.1954    3.0257    4.8352 H   0  0  0  0  0  0
   -3.4108    4.5915    5.1940 H   0  0  0  0  0  0
   -2.0714    2.2601    5.6368 H   0  0  0  0  0  0
   -1.3051    3.3902    4.4828 H   0  0  0  0  0  0
    1.6072    1.1212   -5.9337 O   0  0  0  0  0  0
    2.5040    1.3252   -7.0200 C   0  0  0  0  0  0
    3.0925   -0.0295   -7.5962 C   0  0  0  0  0  0
    2.0329   -0.8955   -8.0434 O   0  0  0  0  0  0
    1.2172   -1.2205   -6.9251 C   0  0  0  0  0  0
    0.6590    0.1288   -6.3067 C   0  0  0  0  0  0
    1.9571    1.8933   -7.7969 H   0  0  0  0  0  0
    3.3497    1.9521   -6.6775 H   0  0  0  0  0  0
    3.6215   -0.5421   -6.7699 H   0  0  0  0  0  0
    3.8394    0.2076   -8.3782 H   0  0  0  0  0  0
    1.7190   -1.8755   -6.1870 H   0  0  0  0  0  0
    0.2630   -1.7040   -7.2102 H   0  0  0  0  0  0
    0.1742   -0.1990   -5.3671 H   0  0  0  0  0  0
   -0.1236    0.5715   -6.9526 H   0  0  0  0  0  0
  1  2  1  0  0  0
  2  3  1  0  0  0
  3  4  1  0  0  0
  4  5  1  0  0  0
  5  6  1  0  0  0
  1  6  1  0  0  0
  2  7  1  0  0  0
  2  8  1  0  0  0
  3  9  1  0  0  0
  3 10  1  0  0  0
  5 11  1  0  0  0
  5 12  1  0  0  0
  6 13  1  0  0  0
  6 14  1  0  0  0
 15 16  1  0  0  0
 16 17  1  0  0  0
 17 18  1  0  0  0
 18 19  1  0  0  0
 19 20  1  0  0  0
 15 20  1  0  0  0
 16 21  1  0  0  0
 16 22  1  0  0  0
 17 23  1  0  0  0
 17 24  1  0  0  0
 19 25  1  0  0  0
 19 26  1  0  0  0
 20 27  1  0  0  0
 20 28  1  0  0  0
M  END
$$$$
