


 28 28  0  0  1  0            999 V2000
    1.0295    1.0134    3.4475 O   0  0  0  0  0  0
   -0.2717    1.5357    3.6924 C   0  0  0  0  0  0
   -1.2447    1.0739    2.6272 C   0  0  0  0  0  0
   -1.3068   -0.3474    2.5827 O   0  0  0  0  0  0
   -0.0055   -0.8696    2.3378 C   0  0  0  0  0  0
    0.9674   -0.4079    3.4030 C   0  0  0  0  0  0
   -0.6265    1.2170    4.6914 H   0  0  0  0  0  0
   -0.1822    2.6390    3.7032 H   0  0  0  0  0  0
   -0.9402    1.4713    1.6399 H   0  0  0  0  0  0
   -2.2695    1.4375    2.8348 H   0  0  0  0  0  0
    0.3492   -0.5510    1.3388 H   0  0  0  0  0  0
   -0.0951   -1.9729    2.3270 H   0  0  0  0  0  0
    1.9922   -0.7714    3.1954 H   0  0  0  0  0  0
    0.6629   -0.8053    4.3903 H   0  0  0  0  0  0
    2.7015   -0.2010    1.2884 O   0  0  0  0  0  0
    2.7778   -0.3217   -0.1278 C   0  0  0  0  0  0
    1.9295    0.7361   -0.8032 C   0  0  0  0  0  0
    2.3479    2.0406   -0.4171 O   0  0  0  0  0  0
    2.2717    2.1613    0.9991 C   0  0  0  0  0  0
    3.1200    1.1035    1.6745 C   0  0  0  0  0  0
    3.8298   -0.2308   -0.4601 H   0  0  0  0  0  0
    2.4300   -1.3404   -0.3862 H   0  0  0  0  0  0
    0.8636    0.5874   -0.5439 H   0  0  0  0  0  0
    2.0189    0.6791   -1.9051 H   0  0  0  0  0  0
    1.2196    2.0704    1.3314 H   0  0  0  0  0  0
    2.6194    3.1800    1.2575 H   0  0  0  0  0  0
    3.0305    1.1605    2.7764 H   0  0  0  0  0  0
    4.1859    1.2522    1.4152 H   0  0  0  0  0  0
  1  2  1  0  0  0
  2  3  1  0  0  0
  3  4  1  0  0  0
  4  5  1  0  0  0
  5  6  1  0  0  0
  1  6  1  0  0  0
  2  7  1  0  0  0
  2  8  1  0  0  0
  3  9  1  0  0  0
  3 10  1  0  0  0
  5 11  1  0  0  0
  5 12  1  0  0  0
  6 13  1  0  0  0
  6 14  1  0  0  0
 15 16  1  0  0  0
 16 17  1  0  0  0
 17 18  1  0  0  0
 18 19  1  0  0  0
 19 20  1  0  0  0
 15 20  1  0  0  0
 16 21  1  0  0  0
 16 22  1  0  0  0
 17 23  1  0  0  0
 17 24  1  0  0  0
 19 25  1  0  0  0
 19 26  1  0  0  0
 20 27  1  0  0  0
 20 28  1  0  0  0
M  END
$$$$
