


 28 28  0  0  1  0            999 V2000
    3.0613   -4.4860   -3.3565 O   0  0  0  0  0  0
    3.0765   -3.1690   -2.7409 C   0  0  0  0  0  0
    3.6714   -2.0527   -3.5672 C   0  0  0  0  0  0
    2.9977   -2.0644   -4.8512 O   0  0  0  0  0  0
    3.2887   -3.2511   -5.4869 C   0  0  0  0  0  0
    2.7530   -4.4791   -4.7297 C   0  0  0  0  0  0
    2.0589   -2.9274   -2.3781 H   0  0  0  0  0  0
    3.7375   -3.2543   -1.8571 H   0  0  0  0  0  0
    4.7524   -2.2078   -3.7483 H   0  0  0  0  0  0
    3.5473   -1.0541   -3.1059 H   0  0  0  0  0  0
    4.3909   -3.2775   -5.5861 H   0  0  0  0  0  0
    2.8613   -3.1594   -6.5040 H   0  0  0  0  0  0
    3.1057   -5.4637   -5.0926 H   0  0  0  0  0  0
    1.6577   -4.5465   -4.5845 H   0  0  0  0  0  0
   -4.2439   -0.1830   -2.5252 O   0  0  0  0  0  0
   -3.5204   -0.7724   -3.6234 C   0  0  0  0  0  0
   -4.2332   -0.3327   -4.9467 C   0  0  0  0  0  0
   -4.2632    1.0897   -4.9681 O   0  0  0  0  0  0
   -5.0511    1.6412   -4.0044 C   0  0  0  0  0  0
   -4.3559    1.2623   -2.6807 C   0  0  0  0  0  0
   -2.4441   -0.5247   -3.5478 H   0  0  0  0  0  0
   -3.6228   -1.8681   -3.5034 H   0  0  0  0  0  0
   -5.2195   -0.8034   -5.1234 H   0  0  0  0  0  0
   -3.5421   -0.6946   -5.7322 H   0  0  0  0  0  0
   -6.0595    1.2065   -4.1443 H   0  0  0  0  0  0
   -5.1360    2.7372   -4.1343 H   0  0  0  0  0  0
   -4.9755    1.5953   -1.8259 H   0  0  0  0  0  0
   -3.4034    1.8253   -2.6455 H   0  0  0  0  0  0
  1  2  1  0  0  0
  2  3  1  0  0  0
  3  4  1  0  0  0
  4  5  1  0  0  0
  5  6  1  0  0  0
  1  6  1  0  0  0
  2  7  1  0  0  0
  2  8  1  0  0  0
  3  9  1  0  0  0
  3 10  1  0  0  0
  5 11  1  0  0  0
  5 12  1  0  0  0
  6 13  1  0  0  0
  6 14  1  0  0  0
 15 16  1  0  0  0
 16 17  1  0  0  0
 17 18  1  0  0  0
 18 19  1  0  0  0
 19 20  1  0  0  0
 15 20  1  0  0  0
 16 21  1  0  0  0
 16 22  1  0  0  0
 17 23  1  0  0  0
 17 24  1  0  0  0
 19 25  1  0  0  0
 19 26  1  0  0  0
 20 27  1  0  0  0
 20 28  1  0  0  0
M  END
$$$$
