


 30 28  0  0  1  0            999 V2000
  -11.9824  -11.9583   -8.7088 C   0  0  0  0  0  0
  -11.8428  -13.0275   -7.5865 C   0  0  0  0  0  0
  -11.4790  -12.7843   -6.2911 C   0  0  0  0  0  0
  -11.4670  -13.8758   -5.2247 C   0  0  0  0  0  0
  -11.0696  -11.4190   -5.7016 C   0  0  0  0  0  0
  -12.9840  -11.9821   -9.1702 H   0  0  0  0  0  0
  -11.2470  -12.3235   -9.4453 H   0  0  0  0  0  0
  -11.7368  -10.9134   -8.4548 H   0  0  0  0  0  0
  -12.2582  -14.0189   -7.8104 H   0  0  0  0  0  0
  -12.3909  -13.8707   -4.6222 H   0  0  0  0  0  0
  -10.6277  -13.5562   -4.5844 H   0  0  0  0  0  0
  -11.2758  -14.9069   -5.5666 H   0  0  0  0  0  0
  -11.6278  -10.7041   -6.3293 H   0  0  0  0  0  0
  -10.0002  -11.1500   -5.7281 H   0  0  0  0  0  0
  -11.4291  -11.3301   -4.6625 H   0  0  0  0  0  0
  -10.9574   -8.0938   -5.7947 C   0  0  0  0  0  0
  -10.1469   -8.1391   -4.4916 C   0  0  0  0  0  0
  -10.3744   -8.7380   -3.2657 C   0  0  0  0  0  0
   -9.3310   -8.5675   -2.1251 C   0  0  0  0  0  0
  -11.7354   -9.4317   -2.9220 C   0  0  0  0  0  0
  -10.2635   -8.4749   -6.5627 H   0  0  0  0  0  0
  -11.2402   -7.0606   -6.0575 H   0  0  0  0  0  0
  -11.8659   -8.7194   -5.7998 H   0  0  0  0  0  0
   -9.2376   -7.5238   -4.5048 H   0  0  0  0  0  0
   -8.5956   -7.7777   -2.3530 H   0  0  0  0  0  0
   -8.8389   -9.5486   -2.2342 H   0  0  0  0  0  0
   -9.6579   -8.4523   -1.0780 H   0  0  0  0  0  0
  -12.6216   -8.7822   -2.8242 H   0  0  0  0  0  0
  -11.6005   -9.9872   -1.9786 H   0  0  0  0  0  0
  -11.9178  -10.1559   -3.7337 H   0  0  0  0  0  0
  1  2  1  0  0  0
  2  3  2  0  0  0
  3  4  1  0  0  0
  3  5  1  0  0  0
  1  6  1  0  0  0
  1  7  1  0  0  0
  1  8  1  0  0  0
  2  9  1  0  0  0
  4 10  1  0  0  0
  4 11  1  0  0  0
  4 12  1  0  0  0
  5 13  1  0  0  0
  5 14  1  0  0  0
  5 15  1  0  0  0
 16 17  1  0  0  0
 17 18  2  0  0  0
 18 19  1  0  0  0
 18 20  1  0  0  0
 16 21  1  0  0  0
 16 22  1  0  0  0
 16 23  1  0  0  0
 17 24  1  0  0  0
 19 25  1  0  0  0
 19 26  1  0  0  0
 19 27  1  0  0  0
 20 28  1  0  0  0
 20 29  1  0  0  0
 20 30  1  0  0  0
M  END
$$$$
