


 30 28  0  0  1  0            999 V2000
   -1.0541   -1.6423    3.4106 C   0  0  0  0  0  0
   -1.2470   -0.3316    4.0473 C   0  0  0  0  0  0
   -2.3936    0.4106    4.0265 C   0  0  0  0  0  0
   -2.4995    1.7172    4.7151 C   0  0  0  0  0  0
   -3.7177   -0.1323    3.4710 C   0  0  0  0  0  0
   -0.0837   -1.5663    2.8919 H   0  0  0  0  0  0
   -1.8304   -1.8960    2.6692 H   0  0  0  0  0  0
   -0.9945   -2.4579    4.1507 H   0  0  0  0  0  0
   -0.3303   -0.0255    4.5685 H   0  0  0  0  0  0
   -2.4689    1.5162    5.7992 H   0  0  0  0  0  0
   -3.4733    2.1732    4.4692 H   0  0  0  0  0  0
   -1.7014    2.4373    4.4682 H   0  0  0  0  0  0
   -3.5921   -1.0006    2.8024 H   0  0  0  0  0  0
   -4.2591    0.6577    2.9237 H   0  0  0  0  0  0
   -4.3267   -0.4406    4.3374 H   0  0  0  0  0  0
   -3.9970    5.1097   -0.7214 C   0  0  0  0  0  0
   -5.1160    4.4621   -1.6258 C   0  0  0  0  0  0
   -5.6831    3.2312   -1.4932 C   0  0  0  0  0  0
   -6.7778    2.8547   -2.4494 C   0  0  0  0  0  0
   -5.2814    2.2699   -0.4160 C   0  0  0  0  0  0
   -3.8921    4.6258    0.2642 H   0  0  0  0  0  0
   -4.2525    6.1715   -0.5666 H   0  0  0  0  0  0
   -3.0281    5.0538   -1.2456 H   0  0  0  0  0  0
   -5.3656    5.1116   -2.4752 H   0  0  0  0  0  0
   -7.6045    2.4002   -1.8779 H   0  0  0  0  0  0
   -6.3962    2.1103   -3.1683 H   0  0  0  0  0  0
   -7.1720    3.7175   -3.0124 H   0  0  0  0  0  0
   -4.7466    2.7896    0.3967 H   0  0  0  0  0  0
   -4.6659    1.4196   -0.7549 H   0  0  0  0  0  0
   -6.2326    1.8788   -0.0174 H   0  0  0  0  0  0
  1  2  1  0  0  0
  2  3  2  0  0  0
  3  4  1  0  0  0
  3  5  1  0  0  0
  1  6  1  0  0  0
  1  7  1  0  0  0
  1  8  1  0  0  0
  2  9  1  0  0  0
  4 10  1  0  0  0
  4 11  1  0  0  0
  4 12  1  0  0  0
  5 13  1  0  0  0
  5 14  1  0  0  0
  5 15  1  0  0  0
 16 17  1  0  0  0
 17 18  2  0  0  0
 18 19  1  0  0  0
 18 20  1  0  0  0
 16 21  1  0  0  0
 16 22  1  0  0  0
 16 23  1  0  0  0
 17 24  1  0  0  0
 19 25  1  0  0  0
 19 26  1  0  0  0
 19 27  1  0  0  0
 20 28  1  0  0  0
 20 29  1  0  0  0
 20 30  1  0  0  0
M  END
$$$$
