


 30 28  0  0  1  0            999 V2000
    0.0000    0.0000    0.0000 C   0  0  0  0  0  0
   -0.1051   -0.9385   -1.1803 C   0  0  0  0  0  0
    0.4203   -2.1299   -1.4502 C   0  0  0  0  0  0
    0.1008   -2.9916   -2.6288 C   0  0  0  0  0  0
    1.4159   -2.8080   -0.4873 C   0  0  0  0  0  0
    0.6796    0.8399   -0.2220 H   0  0  0  0  0  0
    0.3726   -0.5271    0.8944 H   0  0  0  0  0  0
   -1.0008    0.4067    0.2227 H   0  0  0  0  0  0
   -0.7937   -0.5259   -1.9294 H   0  0  0  0  0  0
   -0.3112   -3.9262   -2.2125 H   0  0  0  0  0  0
    0.9187   -3.2463   -3.3235 H   0  0  0  0  0  0
   -0.6944   -2.4779   -3.1947 H   0  0  0  0  0  0
    1.7568   -2.1773    0.3510 H   0  0  0  0  0  0
    2.2785   -3.0206   -1.1411 H   0  0  0  0  0  0
    1.0398   -3.7615   -0.0799 H   0  0  0  0  0  0
   -3.9724    4.4398    1.8614 C   0  0  0  0  0  0
   -4.7247    3.2787    1.0944 C   0  0  0  0  0  0
   -4.2072    2.0985    0.7724 C   0  0  0  0  0  0
   -5.1255    1.1107    0.0681 C   0  0  0  0  0  0
   -2.7818    1.6367    1.2305 C   0  0  0  0  0  0
   -3.2647    4.9219    1.1662 H   0  0  0  0  0  0
   -3.4264    4.1519    2.7756 H   0  0  0  0  0  0
   -4.7522    5.1711    2.1330 H   0  0  0  0  0  0
   -5.7558    3.4959    0.7857 H   0  0  0  0  0  0
   -6.0370    1.5561   -0.3650 H   0  0  0  0  0  0
   -5.4113    0.2138    0.6430 H   0  0  0  0  0  0
   -4.4588    0.8032   -0.7551 H   0  0  0  0  0  0
   -2.1655    1.4596    0.3330 H   0  0  0  0  0  0
   -2.8895    0.6846    1.7768 H   0  0  0  0  0  0
   -2.2580    2.3579    1.8802 H   0  0  0  0  0  0
  1  2  1  0  0  0
  2  3  2  0  0  0
  3  4  1  0  0  0
  3  5  1  0  0  0
  1  6  1  0  0  0
  1  7  1  0  0  0
  1  8  1  0  0  0
  2  9  1  0  0  0
  4 10  1  0  0  0
  4 11  1  0  0  0
  4 12  1  0  0  0
  5 13  1  0  0  0
  5 14  1  0  0  0
  5 15  1  0  0  0
 16 17  1  0  0  0
 17 18  2  0  0  0
 18 19  1  0  0  0
 18 20  1  0  0  0
 16 21  1  0  0  0
 16 22  1  0  0  0
 16 23  1  0  0  0
 17 24  1  0  0  0
 19 25  1  0  0  0
 19 26  1  0  0  0
 19 27  1  0  0  0
 20 28  1  0  0  0
 20 29  1  0  0  0
 20 30  1  0  0  0
M  END
$$$$
