


 30 28  0  0  1  0            999 V2000
   16.4583   -8.4939   -6.6311 C   0  0  0  0  0  0
   15.1698   -7.8949   -6.0617 C   0  0  0  0  0  0
   14.5758   -6.7846   -6.5581 C   0  0  0  0  0  0
   13.2798   -6.2381   -5.8737 C   0  0  0  0  0  0
   15.0648   -5.9960   -7.7599 C   0  0  0  0  0  0
   17.3271   -8.4426   -5.9535 H   0  0  0  0  0  0
   16.6467   -7.8348   -7.4952 H   0  0  0  0  0  0
   16.3564   -9.5303   -6.9946 H   0  0  0  0  0  0
   14.7347   -8.4421   -5.2151 H   0  0  0  0  0  0
   13.5125   -5.3851   -5.2142 H   0  0  0  0  0  0
   12.9052   -7.0700   -5.2538 H   0  0  0  0  0  0
   12.4834   -5.9346   -6.5738 H   0  0  0  0  0  0
   15.1303   -6.6775   -8.6247 H   0  0  0  0  0  0
   16.0715   -5.5977   -7.5489 H   0  0  0  0  0  0
   14.4020   -5.1549   -8.0241 H   0  0  0  0  0  0
   11.9090  -10.2500  -11.2957 C   0  0  0  0  0  0
   13.3564  -10.3211  -10.9515 C   0  0  0  0  0  0
   13.9936   -9.3988  -10.1732 C   0  0  0  0  0  0
   15.4764   -9.4039   -9.9483 C   0  0  0  0  0  0
   13.2628   -8.1660   -9.5660 C   0  0  0  0  0  0
   11.6988  -10.6952  -12.2827 H   0  0  0  0  0  0
   11.5697   -9.2005  -11.3037 H   0  0  0  0  0  0
   11.3337  -10.7999  -10.5320 H   0  0  0  0  0  0
   13.9539  -11.1240  -11.4032 H   0  0  0  0  0  0
   15.9236   -8.4252  -10.1907 H   0  0  0  0  0  0
   15.9327  -10.1698  -10.5978 H   0  0  0  0  0  0
   15.7111   -9.6476   -8.8985 H   0  0  0  0  0  0
   13.4057   -8.1857   -8.4725 H   0  0  0  0  0  0
   12.1833   -8.0873   -9.7784 H   0  0  0  0  0  0
   13.7670   -7.2723   -9.9706 H   0  0  0  0  0  0
  1  2  1  0  0  0
  2  3  2  0  0  0
  3  4  1  0  0  0
  3  5  1  0  0  0
  1  6  1  0  0  0
  1  7  1  0  0  0
  1  8  1  0  0  0
  2  9  1  0  0  0
  4 10  1  0  0  0
  4 11  1  0  0  0
  4 12  1  0  0  0
  5 13  1  0  0  0
  5 14  1  0  0  0
  5 15  1  0  0  0
 16 17  1  0  0  0
 17 18  2  0  0  0
 18 19  1  0  0  0
 18 20  1  0  0  0
 16 21  1  0  0  0
 16 22  1  0  0  0
 16 23  1  0  0  0
 17 24  1  0  0  0
 19 25  1  0  0  0
 19 26  1  0  0  0
 19 27  1  0  0  0
 20 28  1  0  0  0
 20 29  1  0  0  0
 20 30  1  0  0  0
M  END
$$$$
