


 30 28  0  0  1  0            999 V2000
   -3.6897   -1.4732   -3.3357 C   0  0  0  0  0  0
   -4.9156   -2.2158   -2.8233 C   0  0  0  0  0  0
   -5.0537   -2.7815   -1.6396 C   0  0  0  0  0  0
   -6.2349   -3.6530   -1.2699 C   0  0  0  0  0  0
   -3.9147   -2.5165   -0.6610 C   0  0  0  0  0  0
   -3.5188   -1.7285   -4.3950 H   0  0  0  0  0  0
   -2.7814   -1.7239   -2.7624 H   0  0  0  0  0  0
   -3.8652   -0.3869   -3.2596 H   0  0  0  0  0  0
   -5.6456   -2.2673   -3.6419 H   0  0  0  0  0  0
   -6.9543   -3.1424   -0.6078 H   0  0  0  0  0  0
   -5.9640   -4.6208   -0.8154 H   0  0  0  0  0  0
   -6.7240   -3.8444   -2.2398 H   0  0  0  0  0  0
   -2.9968   -3.1234   -0.7370 H   0  0  0  0  0  0
   -4.3886   -2.7162    0.3148 H   0  0  0  0  0  0
   -3.6362   -1.4502   -0.7051 H   0  0  0  0  0  0
   -1.0738    3.6287   -5.9671 C   0  0  0  0  0  0
    0.0112    2.5789   -5.7022 C   0  0  0  0  0  0
    1.2537    2.8059   -5.3479 C   0  0  0  0  0  0
    2.3240    1.7010   -5.2557 C   0  0  0  0  0  0
    1.7923    4.2511   -5.2801 C   0  0  0  0  0  0
   -1.3604    3.5341   -7.0280 H   0  0  0  0  0  0
   -0.7768    4.6735   -5.7747 H   0  0  0  0  0  0
   -1.9518    3.3919   -5.3429 H   0  0  0  0  0  0
   -0.3099    1.5480   -5.9016 H   0  0  0  0  0  0
    3.1393    1.9386   -5.9595 H   0  0  0  0  0  0
    1.9022    0.7180   -5.5248 H   0  0  0  0  0  0
    2.7451    1.6365   -4.2382 H   0  0  0  0  0  0
    1.3649    4.8757   -4.4777 H   0  0  0  0  0  0
    1.6411    4.7650   -6.2442 H   0  0  0  0  0  0
    2.8759    4.1450   -5.1040 H   0  0  0  0  0  0
  1  2  1  0  0  0
  2  3  2  0  0  0
  3  4  1  0  0  0
  3  5  1  0  0  0
  1  6  1  0  0  0
  1  7  1  0  0  0
  1  8  1  0  0  0
  2  9  1  0  0  0
  4 10  1  0  0  0
  4 11  1  0  0  0
  4 12  1  0  0  0
  5 13  1  0  0  0
  5 14  1  0  0  0
  5 15  1  0  0  0
 16 17  1  0  0  0
 17 18  2  0  0  0
 18 19  1  0  0  0
 18 20  1  0  0  0
 16 21  1  0  0  0
 16 22  1  0  0  0
 16 23  1  0  0  0
 17 24  1  0  0  0
 19 25  1  0  0  0
 19 26  1  0  0  0
 19 27  1  0  0  0
 20 28  1  0  0  0
 20 29  1  0  0  0
 20 30  1  0  0  0
M  END
$$$$
