


 30 28  0  0  1  0            999 V2000
    7.9590  -12.9311    1.4617 C   0  0  0  0  0  0
    6.5524  -12.7219    1.0475 C   0  0  0  0  0  0
    5.9306  -12.9293   -0.1152 C   0  0  0  0  0  0
    4.4683  -12.8518   -0.2133 C   0  0  0  0  0  0
    6.6223  -13.2146   -1.3251 C   0  0  0  0  0  0
    8.6255  -13.0341    0.5890 H   0  0  0  0  0  0
    8.0127  -13.8583    2.0567 H   0  0  0  0  0  0
    8.3189  -12.0934    2.0824 H   0  0  0  0  0  0
    5.9659  -12.4297    1.9286 H   0  0  0  0  0  0
    4.0414  -13.5442   -0.9583 H   0  0  0  0  0  0
    4.2194  -11.8189   -0.5097 H   0  0  0  0  0  0
    4.0040  -13.0584    0.7656 H   0  0  0  0  0  0
    7.0577  -14.2199   -1.1969 H   0  0  0  0  0  0
    7.4349  -12.5066   -1.5596 H   0  0  0  0  0  0
    5.9217  -13.2406   -2.1766 H   0  0  0  0  0  0
    3.2757   -8.4016   -9.5863 C   0  0  0  0  0  0
    3.8797   -7.9721   -8.2987 C   0  0  0  0  0  0
    4.9280   -8.5346   -7.6339 C   0  0  0  0  0  0
    5.3021   -7.9563   -6.3030 C   0  0  0  0  0  0
    5.7478   -9.6858   -8.2447 C   0  0  0  0  0  0
    2.9042   -7.5889  -10.2330 H   0  0  0  0  0  0
    2.4508   -9.1107   -9.4035 H   0  0  0  0  0  0
    4.0843   -8.9318  -10.1170 H   0  0  0  0  0  0
    3.3307   -7.1340   -7.8495 H   0  0  0  0  0  0
    5.7993   -8.6956   -5.6527 H   0  0  0  0  0  0
    4.3647   -7.6355   -5.8183 H   0  0  0  0  0  0
    5.9625   -7.0790   -6.4073 H   0  0  0  0  0  0
    6.7328   -9.3618   -8.6209 H   0  0  0  0  0  0
    5.2180  -10.2139   -9.0552 H   0  0  0  0  0  0
    5.9042  -10.3894   -7.4098 H   0  0  0  0  0  0
  1  2  1  0  0  0
  2  3  2  0  0  0
  3  4  1  0  0  0
  3  5  1  0  0  0
  1  6  1  0  0  0
  1  7  1  0  0  0
  1  8  1  0  0  0
  2  9  1  0  0  0
  4 10  1  0  0  0
  4 11  1  0  0  0
  4 12  1  0  0  0
  5 13  1  0  0  0
  5 14  1  0  0  0
  5 15  1  0  0  0
 16 17  1  0  0  0
 17 18  2  0  0  0
 18 19  1  0  0  0
 18 20  1  0  0  0
 16 21  1  0  0  0
 16 22  1  0  0  0
 16 23  1  0  0  0
 17 24  1  0  0  0
 19 25  1  0  0  0
 19 26  1  0  0  0
 19 27  1  0  0  0
 20 28  1  0  0  0
 20 29  1  0  0  0
 20 30  1  0  0  0
M  END
$$$$
