


 30 28  0  0  1  0            999 V2000
   -1.9430   -1.5937   -3.3258 C   0  0  0  0  0  0
   -2.5789   -0.4780   -2.5155 C   0  0  0  0  0  0
   -3.5535    0.3817   -2.7509 C   0  0  0  0  0  0
   -4.0432    1.4834   -1.6979 C   0  0  0  0  0  0
   -4.1950    0.4388   -4.1122 C   0  0  0  0  0  0
   -1.1932   -1.2763   -4.0699 H   0  0  0  0  0  0
   -2.7987   -2.0423   -3.8579 H   0  0  0  0  0  0
   -1.4907   -2.3619   -2.6762 H   0  0  0  0  0  0
   -2.2001   -0.3430   -1.4938 H   0  0  0  0  0  0
   -3.8324    2.4513   -2.1832 H   0  0  0  0  0  0
   -3.4579    1.4227   -0.7650 H   0  0  0  0  0  0
   -5.1158    1.4437   -1.4435 H   0  0  0  0  0  0
   -5.1526   -0.1053   -4.1715 H   0  0  0  0  0  0
   -3.4737   -0.0432   -4.7934 H   0  0  0  0  0  0
   -4.3583    1.4762   -4.4497 H   0  0  0  0  0  0
    1.0977    1.1513   -5.0148 C   0  0  0  0  0  0
    0.1007    1.8493   -4.1058 C   0  0  0  0  0  0
    0.0110    3.1873   -3.8734 C   0  0  0  0  0  0
   -0.9300    3.7470   -2.7758 C   0  0  0  0  0  0
    0.8363    4.3239   -4.5824 C   0  0  0  0  0  0
    1.2994    0.1380   -4.6287 H   0  0  0  0  0  0
    2.0463    1.7135   -5.0400 H   0  0  0  0  0  0
    0.7124    1.0651   -6.0447 H   0  0  0  0  0  0
   -0.5260    1.1121   -3.5868 H   0  0  0  0  0  0
   -1.3845    4.7332   -2.9692 H   0  0  0  0  0  0
   -0.3658    3.7992   -1.8294 H   0  0  0  0  0  0
   -1.7370    3.0036   -2.6637 H   0  0  0  0  0  0
    1.3442    5.0444   -3.9195 H   0  0  0  0  0  0
    0.0718    4.8624   -5.1674 H   0  0  0  0  0  0
    1.5800    3.9022   -5.2792 H   0  0  0  0  0  0
  1  2  1  0  0  0
  2  3  2  0  0  0
  3  4  1  0  0  0
  3  5  1  0  0  0
  1  6  1  0  0  0
  1  7  1  0  0  0
  1  8  1  0  0  0
  2  9  1  0  0  0
  4 10  1  0  0  0
  4 11  1  0  0  0
  4 12  1  0  0  0
  5 13  1  0  0  0
  5 14  1  0  0  0
  5 15  1  0  0  0
 16 17  1  0  0  0
 17 18  2  0  0  0
 18 19  1  0  0  0
 18 20  1  0  0  0
 16 21  1  0  0  0
 16 22  1  0  0  0
 16 23  1  0  0  0
 17 24  1  0  0  0
 19 25  1  0  0  0
 19 26  1  0  0  0
 19 27  1  0  0  0
 20 28  1  0  0  0
 20 29  1  0  0  0
 20 30  1  0  0  0
M  END
$$$$
