


 20 18  0  0  1  0            999 V2000
    0.0000    0.0000    0.0000 C   0  0  0  0  0  0
   -1.0095   -0.5730   -0.9618 C   0  0  0  0  0  0
   -2.3001   -1.5219   -0.1961 S   0  0  0  0  0  0
   -3.5071   -0.2369    0.8548 S   0  0  0  0  0  0
    0.4776   -0.8597    0.4995 H   0  0  0  0  0  0
   -0.4129    0.6707    0.7722 H   0  0  0  0  0  0
    0.7698    0.5491   -0.5679 H   0  0  0  0  0  0
   -1.3993    0.3053   -1.5115 H   0  0  0  0  0  0
   -0.4690   -1.2113   -1.6871 H   0  0  0  0  0  0
   -4.0646    0.5232   -0.1116 H   0  0  0  0  0  0
   -1.4306   -4.7745   -2.1236 C   0  0  0  0  0  0
    0.0148   -5.3494   -1.9540 C   0  0  0  0  0  0
    1.3603   -4.2987   -2.4107 S   0  0  0  0  0  0
    1.0994   -3.7978   -4.3948 S   0  0  0  0  0  0
   -1.4642   -3.7322   -1.7645 H   0  0  0  0  0  0
   -2.1732   -5.3647   -1.5605 H   0  0  0  0  0  0
   -1.7070   -4.7880   -3.1913 H   0  0  0  0  0  0
    0.1078   -5.6610   -0.8958 H   0  0  0  0  0  0
    0.0608   -6.2620   -2.5788 H   0  0  0  0  0  0
   -0.0368   -3.0830   -4.2504 H   0  0  0  0  0  0
  1  2  1  0  0  0
  2  3  1  0  0  0
  3  4  1  0  0  0
  1  5  1  0  0  0
  1  6  1  0  0  0
  1  7  1  0  0  0
  2  8  1  0  0  0
  2  9  1  0  0  0
  4 10  1  0  0  0
 11 12  1  0  0  0
 12 13  1  0  0  0
 13 14  1  0  0  0
 11 15  1  0  0  0
 11 16  1  0  0  0
 11 17  1  0  0  0
 12 18  1  0  0  0
 12 19  1  0  0  0
 14 20  1  0  0  0
M  END
$$$$
