


 20 18  0  0  1  0            999 V2000
    0.0000    0.0000    0.0000 C   0  0  0  0  0  0
   -1.3354   -0.6188   -0.4558 C   0  0  0  0  0  0
   -2.7914   -0.2330    0.6876 S   0  0  0  0  0  0
   -2.0184   -0.4461    2.6872 S   0  0  0  0  0  0
    0.4639   -0.5553    0.8325 H   0  0  0  0  0  0
   -0.0842    1.0612    0.2886 H   0  0  0  0  0  0
    0.6583   -0.0736   -0.8820 H   0  0  0  0  0  0
   -1.6896   -0.3531   -1.4704 H   0  0  0  0  0  0
   -1.3115   -1.7234   -0.3862 H   0  0  0  0  0  0
   -1.3072    0.6984    2.7701 H   0  0  0  0  0  0
   -2.7700    2.4485    6.7338 C   0  0  0  0  0  0
   -3.2224    1.5892    7.9049 C   0  0  0  0  0  0
   -2.2520    0.0549    8.0390 S   0  0  0  0  0  0
   -2.9626   -1.1136    6.4136 S   0  0  0  0  0  0
   -1.7822    2.9342    6.8037 H   0  0  0  0  0  0
   -3.5408    3.2313    6.6350 H   0  0  0  0  0  0
   -2.7894    1.8192    5.8281 H   0  0  0  0  0  0
   -3.1750    2.2524    8.7899 H   0  0  0  0  0  0
   -4.2893    1.3761    7.7006 H   0  0  0  0  0  0
   -2.2785   -0.7097    5.3221 H   0  0  0  0  0  0
  1  2  1  0  0  0
  2  3  1  0  0  0
  3  4  1  0  0  0
  1  5  1  0  0  0
  1  6  1  0  0  0
  1  7  1  0  0  0
  2  8  1  0  0  0
  2  9  1  0  0  0
  4 10  1  0  0  0
 11 12  1  0  0  0
 12 13  1  0  0  0
 13 14  1  0  0  0
 11 15  1  0  0  0
 11 16  1  0  0  0
 11 17  1  0  0  0
 12 18  1  0  0  0
 12 19  1  0  0  0
 14 20  1  0  0  0
M  END
$$$$
