


 34 33  0  0  1  0            999 V2000
   -0.3605    3.1516    3.1010 C   0  0  0  0  0  0
    0.7814    2.3012    3.6616 C   0  0  0  0  0  0
    0.3320    0.8548    3.8787 C   0  0  0  0  0  0
   -0.2162    0.2511    2.5840 C   0  0  0  0  0  0
   -1.3582    1.1014    2.0234 C   0  0  0  0  0  0
   -0.9088    2.5478    1.8063 C   0  0  0  0  0  0
   -0.0127    4.1871    2.9217 H   0  0  0  0  0  0
   -1.1753    3.1950    3.8491 H   0  0  0  0  0  0
    1.6220    2.3108    2.9413 H   0  0  0  0  0  0
    1.1479    2.7337    4.6124 H   0  0  0  0  0  0
   -0.4649    0.8388    4.6469 H   0  0  0  0  0  0
    1.1758    0.2457    4.2563 H   0  0  0  0  0  0
   -0.5641   -0.7845    2.7633 H   0  0  0  0  0  0
    0.5986    0.2076    1.8359 H   0  0  0  0  0  0
   -2.1988    1.0918    2.7436 H   0  0  0  0  0  0
   -1.7246    0.6689    1.0726 H   0  0  0  0  0  0
   -1.7525    3.1569    1.4287 H   0  0  0  0  0  0
   -0.1119    2.5638    1.0381 H   0  0  0  0  0  0
    3.8459    0.1924    1.7406 C   0  0  0  0  0  0
    3.8577    1.5675    1.0851 C   0  0  0  0  0  0
    2.5786    1.9231    0.4715 N   0  0  0  0  0  0
    2.6192    3.3111    0.0325 C   0  0  0  0  0  0
    2.2834    1.0664   -0.6706 C   0  0  0  0  0  0
    2.9926    0.1179    2.4356 H   0  0  0  0  0  0
    4.7785    0.0500    2.3121 H   0  0  0  0  0  0
    3.7636   -0.6159    0.9946 H   0  0  0  0  0  0
    4.0643    2.3307    1.8599 H   0  0  0  0  0  0
    4.6718    1.6185    0.3368 H   0  0  0  0  0  0
    3.4025    3.4848   -0.7243 H   0  0  0  0  0  0
    1.6434    3.5866   -0.4015 H   0  0  0  0  0  0
    2.8160    3.9646    0.8990 H   0  0  0  0  0  0
    3.0791    1.1119   -1.4331 H   0  0  0  0  0  0
    2.1686    0.0192   -0.3439 H   0  0  0  0  0  0
    1.3367    1.3975   -1.1299 H   0  0  0  0  0  0
  1  2  1  0  0  0
  2  3  1  0  0  0
  3  4  1  0  0  0
  4  5  1  0  0  0
  5  6  1  0  0  0
  1  6  1  0  0  0
  1  7  1  0  0  0
  1  8  1  0  0  0
  2  9  1  0  0  0
  2 10  1  0  0  0
  3 11  1  0  0  0
  3 12  1  0  0  0
  4 13  1  0  0  0
  4 14  1  0  0  0
  5 15  1  0  0  0
  5 16  1  0  0  0
  6 17  1  0  0  0
  6 18  1  0  0  0
 19 20  1  0  0  0
 20 21  1  0  0  0
 21 22  1  0  0  0
 21 23  1  0  0  0
 19 24  1  0  0  0
 19 25  1  0  0  0
 19 26  1  0  0  0
 20 27  1  0  0  0
 20 28  1  0  0  0
 22 29  1  0  0  0
 22 30  1  0  0  0
 22 31  1  0  0  0
 23 32  1  0  0  0
 23 33  1  0  0  0
 23 34  1  0  0  0
M  END
$$$$
