


 29 27  0  0  1  0            999 V2000
    4.3043   -0.2039    0.2840 C   0  0  0  0  0  0
    3.1109    0.7210    0.5403 C   0  0  0  0  0  0
    1.9237    0.2719   -0.3167 C   0  0  0  0  0  0
    2.7246    0.6576    2.0209 C   0  0  0  0  0  0
    3.4908    2.1584    0.1729 C   0  0  0  0  0  0
    4.0458   -1.2441    0.5442 H   0  0  0  0  0  0
    5.1684    0.1072    0.8949 H   0  0  0  0  0  0
    4.5947   -0.1690   -0.7795 H   0  0  0  0  0  0
    1.6379   -0.7629   -0.0634 H   0  0  0  0  0  0
    1.0552    0.9293   -0.1429 H   0  0  0  0  0  0
    2.1868    0.3122   -1.3871 H   0  0  0  0  0  0
    3.5706    0.9786    2.6517 H   0  0  0  0  0  0
    1.8653    1.3194    2.2214 H   0  0  0  0  0  0
    2.4480   -0.3728    2.3010 H   0  0  0  0  0  0
    4.3456    2.4966    0.7826 H   0  0  0  0  0  0
    3.7719    2.2203   -0.8918 H   0  0  0  0  0  0
    2.6403    2.8374    0.3523 H   0  0  0  0  0  0
   -3.3768    3.1475    3.7054 C   0  0  0  0  0  0
   -2.5508    4.2904    4.0425 N   0  0  0  0  0  0
   -1.9865    5.0573    3.0686 C   0  0  0  0  0  0
   -2.1556    4.8106    1.8781 O   0  0  0  0  0  0
   -1.1498    6.2169    3.5662 C   0  0  0  0  0  0
   -3.7295    2.6717    4.6359 H   0  0  0  0  0  0
   -2.8045    2.4041    3.1253 H   0  0  0  0  0  0
   -4.2547    3.4558    3.1132 H   0  0  0  0  0  0
   -2.3862    4.5286    5.0237 H   0  0  0  0  0  0
   -0.3067    5.8607    4.1818 H   0  0  0  0  0  0
   -0.7451    6.7650    2.6988 H   0  0  0  0  0  0
   -1.7570    6.9123    4.1698 H   0  0  0  0  0  0
  1  2  1  0  0  0
  2  3  1  0  0  0
  2  4  1  0  0  0
  2  5  1  0  0  0
  1  6  1  0  0  0
  1  7  1  0  0  0
  1  8  1  0  0  0
  3  9  1  0  0  0
  3 10  1  0  0  0
  3 11  1  0  0  0
  4 12  1  0  0  0
  4 13  1  0  0  0
  4 14  1  0  0  0
  5 15  1  0  0  0
  5 16  1  0  0  0
  5 17  1  0  0  0
 18 19  1  0  0  0
 19 20  1  0  0  0
 20 21  2  0  0  0
 20 22  1  0  0  0
 18 23  1  0  0  0
 18 24  1  0  0  0
 18 25  1  0  0  0
 19 26  1  0  0  0
 22 27  1  0  0  0
 22 28  1  0  0  0
 22 29  1  0  0  0
M  END
$$$$
