


 18 16  0  0  1  0            999 V2000
    4.7195  -15.1763    3.8835 C   0  0  0  0  0  0
    5.0535  -13.6848    3.5287 C   0  0  0  0  0  0
    6.8749  -13.4297    3.6897 S   0  0  0  0  0  0
    4.8731  -15.2632    4.9722 H   0  0  0  0  0  0
    5.3170  -15.9552    3.3806 H   0  0  0  0  0  0
    3.6534  -15.3539    3.6633 H   0  0  0  0  0  0
    4.6740  -13.5069    2.5041 H   0  0  0  0  0  0
    4.4661  -13.0504    4.2200 H   0  0  0  0  0  0
    7.1616  -14.7489    3.6884 H   0  0  0  0  0  0
   -1.8360  -17.3420    3.9411 C   0  0  0  0  0  0
   -3.0994  -18.1153    3.4408 C   0  0  0  0  0  0
   -3.8698  -17.0547    2.1895 S   0  0  0  0  0  0
   -1.4346  -17.8198    4.8506 H   0  0  0  0  0  0
   -1.9452  -16.2609    4.1306 H   0  0  0  0  0  0
   -1.1126  -17.4840    3.1206 H   0  0  0  0  0  0
   -2.9499  -19.1361    3.0396 H   0  0  0  0  0  0
   -3.7156  -18.2005    4.3565 H   0  0  0  0  0  0
   -3.3146  -17.4915    1.0391 H   0  0  0  0  0  0
  1  2  1  0  0  0
  2  3  1  0  0  0
  1  4  1  0  0  0
  1  5  1  0  0  0
  1  6  1  0  0  0
  2  7  1  0  0  0
  2  8  1  0  0  0
  3  9  1  0  0  0
 10 11  1  0  0  0
 11 12  1  0  0  0
 10 13  1  0  0  0
 10 14  1  0  0  0
 10 15  1  0  0  0
 11 16  1  0  0  0
 11 17  1  0  0  0
 12 18  1  0  0  0
M  END
$$$$
