


 18 16  0  0  1  0            999 V2000
   -2.8145    0.9821  -15.4533 C   0  0  0  0  0  0
   -2.8397    1.4489  -13.9869 C   0  0  0  0  0  0
   -1.9174    0.2715  -12.9539 S   0  0  0  0  0  0
   -3.5028    1.5415  -16.1091 H   0  0  0  0  0  0
   -3.1466   -0.0688  -15.4094 H   0  0  0  0  0  0
   -1.8043    1.0137  -15.8950 H   0  0  0  0  0  0
   -2.5364    2.4975  -13.8028 H   0  0  0  0  0  0
   -3.8857    1.3357  -13.6428 H   0  0  0  0  0  0
   -0.9571    0.3362  -13.9005 H   0  0  0  0  0  0
    0.5846    3.5042  -15.7396 C   0  0  0  0  0  0
   -0.4243    4.0444  -16.7956 C   0  0  0  0  0  0
    0.3556    5.5528  -17.4959 S   0  0  0  0  0  0
    0.2830    2.5993  -15.1858 H   0  0  0  0  0  0
    0.8910    4.2756  -15.0132 H   0  0  0  0  0  0
    1.4512    3.2553  -16.3750 H   0  0  0  0  0  0
   -0.3701    3.3631  -17.6665 H   0  0  0  0  0  0
   -1.4639    4.0230  -16.4158 H   0  0  0  0  0  0
    0.0148    6.3228  -16.4407 H   0  0  0  0  0  0
  1  2  1  0  0  0
  2  3  1  0  0  0
  1  4  1  0  0  0
  1  5  1  0  0  0
  1  6  1  0  0  0
  2  7  1  0  0  0
  2  8  1  0  0  0
  3  9  1  0  0  0
 10 11  1  0  0  0
 11 12  1  0  0  0
 10 13  1  0  0  0
 10 14  1  0  0  0
 10 15  1  0  0  0
 11 16  1  0  0  0
 11 17  1  0  0  0
 12 18  1  0  0  0
M  END
$$$$
