


 18 16  0  0  1  0            999 V2000
   -1.2558   -2.8784   -3.9959 C   0  0  0  0  0  0
   -1.0757   -2.1513   -2.6389 C   0  0  0  0  0  0
   -2.7096   -1.6068   -2.0659 S   0  0  0  0  0  0
   -0.2286   -3.1568   -4.2856 H   0  0  0  0  0  0
   -1.6786   -2.2283   -4.7803 H   0  0  0  0  0  0
   -1.8647   -3.7960   -3.9335 H   0  0  0  0  0  0
   -0.5885   -2.8273   -1.9101 H   0  0  0  0  0  0
   -0.4024   -1.2873   -2.7989 H   0  0  0  0  0  0
   -2.1302   -0.7308   -1.2177 H   0  0  0  0  0  0
    2.8512   -3.3248    3.8856 C   0  0  0  0  0  0
    3.4341   -2.2295    4.7661 C   0  0  0  0  0  0
    3.8065   -0.7617    3.6857 S   0  0  0  0  0  0
    3.7160   -3.7155    3.3233 H   0  0  0  0  0  0
    2.0595   -3.0511    3.1680 H   0  0  0  0  0  0
    2.4692   -4.1237    4.5432 H   0  0  0  0  0  0
    2.7077   -1.8885    5.5286 H   0  0  0  0  0  0
    4.3856   -2.4555    5.2850 H   0  0  0  0  0  0
    5.0371   -0.4708    4.1584 H   0  0  0  0  0  0
  1  2  1  0  0  0
  2  3  1  0  0  0
  1  4  1  0  0  0
  1  5  1  0  0  0
  1  6  1  0  0  0
  2  7  1  0  0  0
  2  8  1  0  0  0
  3  9  1  0  0  0
 10 11  1  0  0  0
 11 12  1  0  0  0
 10 13  1  0  0  0
 10 14  1  0  0  0
 10 15  1  0  0  0
 11 16  1  0  0  0
 11 17  1  0  0  0
 12 18  1  0  0  0
M  END
$$$$
