


 18 16  0  0  1  0            999 V2000
    1.3795    0.6745    7.5420 C   0  0  0  0  0  0
    0.7628    0.4046    6.0815 C   0  0  0  0  0  0
   -0.6256    1.6291    5.9641 S   0  0  0  0  0  0
    2.2190   -0.0263    7.6860 H   0  0  0  0  0  0
    0.5978    0.4446    8.2854 H   0  0  0  0  0  0
    1.7432    1.7005    7.7197 H   0  0  0  0  0  0
    1.5392    0.5614    5.3082 H   0  0  0  0  0  0
    0.4396   -0.6526    6.0245 H   0  0  0  0  0  0
    0.3077    2.5987    6.0704 H   0  0  0  0  0  0
    2.8512   -3.3248    3.8856 C   0  0  0  0  0  0
    3.4341   -2.2295    4.7661 C   0  0  0  0  0  0
    3.8065   -0.7617    3.6857 S   0  0  0  0  0  0
    3.7160   -3.7155    3.3233 H   0  0  0  0  0  0
    2.0595   -3.0511    3.1680 H   0  0  0  0  0  0
    2.4692   -4.1237    4.5432 H   0  0  0  0  0  0
    2.7077   -1.8885    5.5286 H   0  0  0  0  0  0
    4.3856   -2.4555    5.2850 H   0  0  0  0  0  0
    5.0371   -0.4708    4.1584 H   0  0  0  0  0  0
  1  2  1  0  0  0
  2  3  1  0  0  0
  1  4  1  0  0  0
  1  5  1  0  0  0
  1  6  1  0  0  0
  2  7  1  0  0  0
  2  8  1  0  0  0
  3  9  1  0  0  0
 10 11  1  0  0  0
 11 12  1  0  0  0
 10 13  1  0  0  0
 10 14  1  0  0  0
 10 15  1  0  0  0
 11 16  1  0  0  0
 11 17  1  0  0  0
 12 18  1  0  0  0
M  END
$$$$
