


 18 16  0  0  1  0            999 V2000
   -4.4800   -2.0162    5.1832 C   0  0  0  0  0  0
   -2.9442   -2.0322    5.1191 C   0  0  0  0  0  0
   -2.3110   -3.5958    4.4541 S   0  0  0  0  0  0
   -5.0507   -1.7334    4.2827 H   0  0  0  0  0  0
   -4.6913   -1.2818    5.9786 H   0  0  0  0  0  0
   -4.8237   -3.0086    5.5203 H   0  0  0  0  0  0
   -2.6592   -1.0600    4.6729 H   0  0  0  0  0  0
   -2.6414   -2.0156    6.1837 H   0  0  0  0  0  0
   -2.5764   -3.1604    3.2041 H   0  0  0  0  0  0
    3.3099    0.1908   -3.9604 C   0  0  0  0  0  0
    1.8099    0.0098   -4.2726 C   0  0  0  0  0  0
    1.3107    0.7192   -5.8931 S   0  0  0  0  0  0
    3.5291   -0.2499   -2.9733 H   0  0  0  0  0  0
    3.6354    1.2447   -3.9552 H   0  0  0  0  0  0
    3.8900   -0.3528   -4.7250 H   0  0  0  0  0  0
    1.4936   -1.0511   -4.2694 H   0  0  0  0  0  0
    1.1985    0.5456   -3.5213 H   0  0  0  0  0  0
    2.5107    0.5965   -6.4992 H   0  0  0  0  0  0
  1  2  1  0  0  0
  2  3  1  0  0  0
  1  4  1  0  0  0
  1  5  1  0  0  0
  1  6  1  0  0  0
  2  7  1  0  0  0
  2  8  1  0  0  0
  3  9  1  0  0  0
 10 11  1  0  0  0
 11 12  1  0  0  0
 10 13  1  0  0  0
 10 14  1  0  0  0
 10 15  1  0  0  0
 11 16  1  0  0  0
 11 17  1  0  0  0
 12 18  1  0  0  0
M  END
$$$$
