


 18 16  0  0  1  0            999 V2000
    0.0000    0.0000    0.0000 C   0  0  0  0  0  0
    0.0767   -0.7202    1.3787 C   0  0  0  0  0  0
   -1.5136   -0.4524    2.1379 S   0  0  0  0  0  0
    0.0408    1.1016    0.0372 H   0  0  0  0  0  0
   -0.8982   -0.2999   -0.5656 H   0  0  0  0  0  0
    0.8917   -0.3672   -0.5354 H   0  0  0  0  0  0
    0.2964   -1.8003    1.2750 H   0  0  0  0  0  0
    0.8488   -0.2817    2.0398 H   0  0  0  0  0  0
   -2.2079   -1.3257    1.3776 H   0  0  0  0  0  0
    0.2197   -3.8673    4.1616 C   0  0  0  0  0  0
    0.5916   -5.3519    3.9154 C   0  0  0  0  0  0
    2.2917   -5.7975    4.1517 S   0  0  0  0  0  0
   -0.8821   -3.8427    4.2080 H   0  0  0  0  0  0
    0.5446   -3.3551    3.2404 H   0  0  0  0  0  0
    0.6207   -3.3179    5.0298 H   0  0  0  0  0  0
    0.0083   -5.8942    4.6843 H   0  0  0  0  0  0
    0.1656   -5.6088    2.9265 H   0  0  0  0  0  0
    2.1307   -7.1052    3.8576 H   0  0  0  0  0  0
  1  2  1  0  0  0
  2  3  1  0  0  0
  1  4  1  0  0  0
  1  5  1  0  0  0
  1  6  1  0  0  0
  2  7  1  0  0  0
  2  8  1  0  0  0
  3  9  1  0  0  0
 10 11  1  0  0  0
 11 12  1  0  0  0
 10 13  1  0  0  0
 10 14  1  0  0  0
 10 15  1  0  0  0
 11 16  1  0  0  0
 11 17  1  0  0  0
 12 18  1  0  0  0
M  END
$$$$
