


 18 16  0  0  1  0            999 V2000
    1.6610   -4.3873   -0.0478 C   0  0  0  0  0  0
    2.9200   -3.6534    0.4170 C   0  0  0  0  0  0
    3.6398   -2.7125   -1.0272 S   0  0  0  0  0  0
    0.9084   -3.7456   -0.5361 H   0  0  0  0  0  0
    1.2020   -4.8552    0.8393 H   0  0  0  0  0  0
    1.9555   -5.1830   -0.7526 H   0  0  0  0  0  0
    2.7521   -2.9164    1.2258 H   0  0  0  0  0  0
    3.5761   -4.4496    0.8181 H   0  0  0  0  0  0
    2.9060   -3.4362   -1.8990 H   0  0  0  0  0  0
    0.8232   -0.4163    4.7654 C   0  0  0  0  0  0
    0.2611   -1.8969    4.6302 C   0  0  0  0  0  0
    0.3760   -2.5985    2.9874 S   0  0  0  0  0  0
    1.9256   -0.4011    4.7969 H   0  0  0  0  0  0
    0.4384    0.0513    5.6873 H   0  0  0  0  0  0
    0.4876    0.1814    3.9013 H   0  0  0  0  0  0
    0.8220   -2.6088    5.2660 H   0  0  0  0  0  0
   -0.7965   -1.9152    4.9569 H   0  0  0  0  0  0
    1.7257   -2.5854    3.0148 H   0  0  0  0  0  0
  1  2  1  0  0  0
  2  3  1  0  0  0
  1  4  1  0  0  0
  1  5  1  0  0  0
  1  6  1  0  0  0
  2  7  1  0  0  0
  2  8  1  0  0  0
  3  9  1  0  0  0
 10 11  1  0  0  0
 11 12  1  0  0  0
 10 13  1  0  0  0
 10 14  1  0  0  0
 10 15  1  0  0  0
 11 16  1  0  0  0
 11 17  1  0  0  0
 12 18  1  0  0  0
M  END
$$$$
