


 18 16  0  0  1  0            999 V2000
   12.0933   11.1191   -2.9587 C   0  0  0  0  0  0
   10.2401   11.1840   -2.7571 S   0  0  0  0  0  0
   10.0452    9.4527   -2.2373 C   0  0  0  0  0  0
   12.6069   11.0385   -1.9859 H   0  0  0  0  0  0
   12.3846   12.0715   -3.4325 H   0  0  0  0  0  0
   12.4279   10.2887   -3.6031 H   0  0  0  0  0  0
    9.0265    9.3204   -1.8354 H   0  0  0  0  0  0
   10.7646    9.0207   -1.5215 H   0  0  0  0  0  0
   10.1221    8.9014   -3.1895 H   0  0  0  0  0  0
   11.5058    9.2188   -9.2837 C   0  0  0  0  0  0
   10.2019   10.3377   -8.6581 S   0  0  0  0  0  0
    9.7205    9.4798   -7.1186 C   0  0  0  0  0  0
   11.1199    8.1860   -9.3148 H   0  0  0  0  0  0
   12.4314    9.2306   -8.6839 H   0  0  0  0  0  0
   11.7490    9.5346  -10.3121 H   0  0  0  0  0  0
    8.9760   10.0813   -6.5705 H   0  0  0  0  0  0
   10.5654    9.2646   -6.4429 H   0  0  0  0  0  0
    9.2535    8.5249   -7.4130 H   0  0  0  0  0  0
  1  2  1  0  0  0
  2  3  1  0  0  0
  1  4  1  0  0  0
  1  5  1  0  0  0
  1  6  1  0  0  0
  3  7  1  0  0  0
  3  8  1  0  0  0
  3  9  1  0  0  0
 10 11  1  0  0  0
 11 12  1  0  0  0
 10 13  1  0  0  0
 10 14  1  0  0  0
 10 15  1  0  0  0
 12 16  1  0  0  0
 12 17  1  0  0  0
 12 18  1  0  0  0
M  END
$$$$
