


 18 16  0  0  1  0            999 V2000
    0.0000    0.0000    0.0000 C   0  0  0  0  0  0
   -1.2490   -0.3115   -1.2644 S   0  0  0  0  0  0
   -2.6372    0.6601   -0.7158 C   0  0  0  0  0  0
    0.8873   -0.6552    0.0028 H   0  0  0  0  0  0
   -0.4719   -0.0426    0.9960 H   0  0  0  0  0  0
    0.3282    1.0358   -0.1898 H   0  0  0  0  0  0
   -2.3530    1.6909   -0.4451 H   0  0  0  0  0  0
   -3.1298    0.1913    0.1527 H   0  0  0  0  0  0
   -3.3585    0.7014   -1.5493 H   0  0  0  0  0  0
    2.7145    2.6334   -1.1515 C   0  0  0  0  0  0
    1.3210    3.6637   -0.8606 S   0  0  0  0  0  0
    0.6847    3.5735   -2.4996 C   0  0  0  0  0  0
    3.4163    2.6134   -0.3009 H   0  0  0  0  0  0
    3.2225    3.0933   -2.0159 H   0  0  0  0  0  0
    2.4474    1.5954   -1.4118 H   0  0  0  0  0  0
    0.6824    2.4956   -2.7332 H   0  0  0  0  0  0
    1.3090    4.0939   -3.2453 H   0  0  0  0  0  0
   -0.3480    3.9529   -2.5791 H   0  0  0  0  0  0
  1  2  1  0  0  0
  2  3  1  0  0  0
  1  4  1  0  0  0
  1  5  1  0  0  0
  1  6  1  0  0  0
  3  7  1  0  0  0
  3  8  1  0  0  0
  3  9  1  0  0  0
 10 11  1  0  0  0
 11 12  1  0  0  0
 10 13  1  0  0  0
 10 14  1  0  0  0
 10 15  1  0  0  0
 12 16  1  0  0  0
 12 17  1  0  0  0
 12 18  1  0  0  0
M  END
$$$$
