


 18 16  0  0  1  0            999 V2000
   12.0933   11.1191   -2.9587 C   0  0  0  0  0  0
   10.2401   11.1840   -2.7571 S   0  0  0  0  0  0
   10.0452    9.4527   -2.2373 C   0  0  0  0  0  0
   12.6069   11.0385   -1.9859 H   0  0  0  0  0  0
   12.3846   12.0715   -3.4325 H   0  0  0  0  0  0
   12.4279   10.2887   -3.6031 H   0  0  0  0  0  0
    9.0265    9.3204   -1.8354 H   0  0  0  0  0  0
   10.7646    9.0207   -1.5215 H   0  0  0  0  0  0
   10.1221    8.9014   -3.1895 H   0  0  0  0  0  0
   11.8168    9.5404   -7.7475 C   0  0  0  0  0  0
   10.5129   10.6593   -7.1220 S   0  0  0  0  0  0
   10.0316    9.8014   -5.5824 C   0  0  0  0  0  0
   11.4309    8.5076   -7.7786 H   0  0  0  0  0  0
   12.7425    9.5522   -7.1477 H   0  0  0  0  0  0
   12.0600    9.8563   -8.7760 H   0  0  0  0  0  0
    9.2870   10.4029   -5.0343 H   0  0  0  0  0  0
   10.8764    9.5862   -4.9067 H   0  0  0  0  0  0
    9.5646    8.8465   -5.8769 H   0  0  0  0  0  0
  1  2  1  0  0  0
  2  3  1  0  0  0
  1  4  1  0  0  0
  1  5  1  0  0  0
  1  6  1  0  0  0
  3  7  1  0  0  0
  3  8  1  0  0  0
  3  9  1  0  0  0
 10 11  1  0  0  0
 11 12  1  0  0  0
 10 13  1  0  0  0
 10 14  1  0  0  0
 10 15  1  0  0  0
 12 16  1  0  0  0
 12 17  1  0  0  0
 12 18  1  0  0  0
M  END
$$$$
