


 18 16  0  0  1  0            999 V2000
    0.0000    0.0000    0.0000 C   0  0  0  0  0  0
   -1.2490   -0.3115   -1.2644 S   0  0  0  0  0  0
   -2.6372    0.6601   -0.7158 C   0  0  0  0  0  0
    0.8873   -0.6552    0.0028 H   0  0  0  0  0  0
   -0.4719   -0.0426    0.9960 H   0  0  0  0  0  0
    0.3282    1.0358   -0.1898 H   0  0  0  0  0  0
   -2.3530    1.6909   -0.4451 H   0  0  0  0  0  0
   -3.1298    0.1913    0.1527 H   0  0  0  0  0  0
   -3.3585    0.7014   -1.5493 H   0  0  0  0  0  0
   -0.8975   -3.1618   -5.5238 C   0  0  0  0  0  0
   -0.5687   -1.5466   -6.3683 S   0  0  0  0  0  0
   -0.6845   -0.4149   -4.8866 C   0  0  0  0  0  0
   -0.4647   -3.2201   -4.5110 H   0  0  0  0  0  0
   -0.5088   -4.0033   -6.1216 H   0  0  0  0  0  0
   -1.9930   -3.2630   -5.4447 H   0  0  0  0  0  0
   -1.7716   -0.5222   -4.7340 H   0  0  0  0  0  0
   -0.4575    0.6499   -5.0638 H   0  0  0  0  0  0
   -0.1667   -0.7366   -3.9673 H   0  0  0  0  0  0
  1  2  1  0  0  0
  2  3  1  0  0  0
  1  4  1  0  0  0
  1  5  1  0  0  0
  1  6  1  0  0  0
  3  7  1  0  0  0
  3  8  1  0  0  0
  3  9  1  0  0  0
 10 11  1  0  0  0
 11 12  1  0  0  0
 10 13  1  0  0  0
 10 14  1  0  0  0
 10 15  1  0  0  0
 12 16  1  0  0  0
 12 17  1  0  0  0
 12 18  1  0  0  0
M  END
$$$$
