


 18 16  0  0  1  0            999 V2000
    3.1795   -1.9644    1.0262 C   0  0  0  0  0  0
    2.6663   -3.6944    1.2809 S   0  0  0  0  0  0
    3.5428   -4.0712    2.9007 C   0  0  0  0  0  0
    2.3116   -1.3334    1.2815 H   0  0  0  0  0  0
    3.4809   -1.7447   -0.0118 H   0  0  0  0  0  0
    4.0144   -1.7028    1.6978 H   0  0  0  0  0  0
    4.5862   -3.7268    2.9973 H   0  0  0  0  0  0
    3.5385   -5.1734    2.8584 H   0  0  0  0  0  0
    2.9825   -3.7514    3.7954 H   0  0  0  0  0  0
   -1.4923   -4.3982    2.0978 C   0  0  0  0  0  0
   -2.0074   -3.5835    0.5809 S   0  0  0  0  0  0
   -0.8122   -4.2955   -0.5877 C   0  0  0  0  0  0
   -0.3988   -4.2789    2.1795 H   0  0  0  0  0  0
   -1.7205   -5.4694    1.9672 H   0  0  0  0  0  0
   -1.9552   -4.0519    3.0372 H   0  0  0  0  0  0
   -1.0130   -4.1101   -1.6563 H   0  0  0  0  0  0
   -0.8573   -5.3823   -0.4047 H   0  0  0  0  0  0
    0.2060   -3.9414   -0.3544 H   0  0  0  0  0  0
  1  2  1  0  0  0
  2  3  1  0  0  0
  1  4  1  0  0  0
  1  5  1  0  0  0
  1  6  1  0  0  0
  3  7  1  0  0  0
  3  8  1  0  0  0
  3  9  1  0  0  0
 10 11  1  0  0  0
 11 12  1  0  0  0
 10 13  1  0  0  0
 10 14  1  0  0  0
 10 15  1  0  0  0
 12 16  1  0  0  0
 12 17  1  0  0  0
 12 18  1  0  0  0
M  END
$$$$
