


 28 26  0  0  1  0            999 V2000
    3.5306   -0.0267   -1.3766 C   0  0  0  0  0  0
    4.5601    0.7210   -0.5083 C   0  0  0  0  0  0
    4.8382    1.9812   -1.1439 O   0  0  0  0  0  0
    6.1076    2.4361   -1.2207 C   0  0  0  0  0  0
    7.1054    1.8062   -0.8462 O   0  0  0  0  0  0
    6.0942    3.8430   -1.6428 C   0  0  0  0  0  0
    3.8060   -0.1974   -2.4310 H   0  0  0  0  0  0
    2.6786    0.6730   -1.3444 H   0  0  0  0  0  0
    3.2141   -0.9869   -0.9358 H   0  0  0  0  0  0
    4.2502    0.9625    0.5267 H   0  0  0  0  0  0
    5.3969   -0.0012   -0.4493 H   0  0  0  0  0  0
    7.1290    4.2203   -1.7015 H   0  0  0  0  0  0
    5.5353    4.4603   -0.9194 H   0  0  0  0  0  0
    5.6238    3.9506   -2.6346 H   0  0  0  0  0  0
    6.5486    9.6289    3.0977 C   0  0  0  0  0  0
    7.1386    8.7041    2.0416 C   0  0  0  0  0  0
    6.4578    7.4607    2.4432 O   0  0  0  0  0  0
    5.8434    6.6604    1.4706 C   0  0  0  0  0  0
    6.0399    6.8696    0.2978 O   0  0  0  0  0  0
    4.8705    5.6074    1.9891 C   0  0  0  0  0  0
    6.9664    9.3072    4.0665 H   0  0  0  0  0  0
    5.4489    9.5610    3.1488 H   0  0  0  0  0  0
    6.8285   10.6819    2.9261 H   0  0  0  0  0  0
    6.8963    8.9422    0.9880 H   0  0  0  0  0  0
    8.2229    8.4885    2.0972 H   0  0  0  0  0  0
    4.7120    4.7993    1.2553 H   0  0  0  0  0  0
    3.9047    6.1056    2.1778 H   0  0  0  0  0  0
    5.2263    5.1609    2.9328 H   0  0  0  0  0  0
  1  2  1  0  0  0
  2  3  1  0  0  0
  3  4  1  0  0  0
  4  5  2  0  0  0
  4  6  1  0  0  0
  1  7  1  0  0  0
  1  8  1  0  0  0
  1  9  1  0  0  0
  2 10  1  0  0  0
  2 11  1  0  0  0
  6 12  1  0  0  0
  6 13  1  0  0  0
  6 14  1  0  0  0
 15 16  1  0  0  0
 16 17  1  0  0  0
 17 18  1  0  0  0
 18 19  2  0  0  0
 18 20  1  0  0  0
 15 21  1  0  0  0
 15 22  1  0  0  0
 15 23  1  0  0  0
 16 24  1  0  0  0
 16 25  1  0  0  0
 20 26  1  0  0  0
 20 27  1  0  0  0
 20 28  1  0  0  0
M  END
$$$$
