


 28 26  0  0  1  0            999 V2000
   11.5116   13.0838    3.9676 C   0  0  0  0  0  0
   11.2064   12.5518    2.5704 C   0  0  0  0  0  0
   11.9768   11.3532    2.3628 O   0  0  0  0  0  0
   11.5847   10.3252    1.6729 C   0  0  0  0  0  0
   10.4660   10.2452    1.0882 O   0  0  0  0  0  0
   12.6208    9.2005    1.7635 C   0  0  0  0  0  0
   12.5659   13.3908    4.0717 H   0  0  0  0  0  0
   11.3015   12.2912    4.7053 H   0  0  0  0  0  0
   10.8687   13.9518    4.1911 H   0  0  0  0  0  0
   10.1350   12.3201    2.4158 H   0  0  0  0  0  0
   11.5185   13.2506    1.7706 H   0  0  0  0  0  0
   13.6164    9.6735    1.7228 H   0  0  0  0  0  0
   12.5489    8.4614    0.9479 H   0  0  0  0  0  0
   12.5214    8.6723    2.7267 H   0  0  0  0  0  0
   13.9492    9.4995    5.8720 C   0  0  0  0  0  0
   12.7349    9.9502    6.7997 C   0  0  0  0  0  0
   11.5423    9.6939    6.2405 O   0  0  0  0  0  0
   10.9836    8.4799    6.1182 C   0  0  0  0  0  0
   11.3705    7.4628    6.6744 O   0  0  0  0  0  0
    9.7357    8.4760    5.2954 C   0  0  0  0  0  0
   14.9311    9.6059    6.3630 H   0  0  0  0  0  0
   13.8888   10.2267    5.0448 H   0  0  0  0  0  0
   13.8741    8.4823    5.4522 H   0  0  0  0  0  0
   12.8904    9.6499    7.8538 H   0  0  0  0  0  0
   12.8323   11.0516    6.7457 H   0  0  0  0  0  0
    8.8410    8.5942    5.9295 H   0  0  0  0  0  0
    9.6013    7.5844    4.6601 H   0  0  0  0  0  0
    9.8250    9.3618    4.6442 H   0  0  0  0  0  0
  1  2  1  0  0  0
  2  3  1  0  0  0
  3  4  1  0  0  0
  4  5  2  0  0  0
  4  6  1  0  0  0
  1  7  1  0  0  0
  1  8  1  0  0  0
  1  9  1  0  0  0
  2 10  1  0  0  0
  2 11  1  0  0  0
  6 12  1  0  0  0
  6 13  1  0  0  0
  6 14  1  0  0  0
 15 16  1  0  0  0
 16 17  1  0  0  0
 17 18  1  0  0  0
 18 19  2  0  0  0
 18 20  1  0  0  0
 15 21  1  0  0  0
 15 22  1  0  0  0
 15 23  1  0  0  0
 16 24  1  0  0  0
 16 25  1  0  0  0
 20 26  1  0  0  0
 20 27  1  0  0  0
 20 28  1  0  0  0
M  END
$$$$
