


 28 26  0  0  1  0            999 V2000
    1.5039    3.7570   -0.1845 C   0  0  0  0  0  0
    0.1738    4.5123    0.2629 C   0  0  0  0  0  0
   -0.8792    3.6098    0.6322 O   0  0  0  0  0  0
   -0.8457    3.0838    1.9075 C   0  0  0  0  0  0
    0.1328    3.0443    2.6229 O   0  0  0  0  0  0
   -2.0672    2.2768    2.1875 C   0  0  0  0  0  0
    2.1139    3.3661    0.6473 H   0  0  0  0  0  0
    2.1236    4.4475   -0.7809 H   0  0  0  0  0  0
    1.2013    2.9124   -0.8260 H   0  0  0  0  0  0
    0.4005    5.2042    1.0968 H   0  0  0  0  0  0
   -0.0257    5.1245   -0.6376 H   0  0  0  0  0  0
   -1.7998    1.3016    2.6282 H   0  0  0  0  0  0
   -2.7322    2.1026    1.3249 H   0  0  0  0  0  0
   -2.6162    2.8650    2.9419 H   0  0  0  0  0  0
    0.4836    1.7488   -4.1369 C   0  0  0  0  0  0
   -0.6944    1.0072   -4.7917 C   0  0  0  0  0  0
   -0.2302   -0.2958   -5.0658 O   0  0  0  0  0  0
   -1.2017   -1.1746   -5.4438 C   0  0  0  0  0  0
   -2.3625   -0.8073   -5.7606 O   0  0  0  0  0  0
   -0.6711   -2.6091   -5.4380 C   0  0  0  0  0  0
    0.5971    2.8137   -4.4008 H   0  0  0  0  0  0
    1.4358    1.2317   -4.3434 H   0  0  0  0  0  0
    0.2701    1.6747   -3.0573 H   0  0  0  0  0  0
   -1.5909    0.9656   -4.1437 H   0  0  0  0  0  0
   -0.9692    1.5586   -5.7114 H   0  0  0  0  0  0
    0.2561   -2.6854   -6.0305 H   0  0  0  0  0  0
   -1.3632   -3.4038   -5.7638 H   0  0  0  0  0  0
   -0.4239   -2.7717   -4.3754 H   0  0  0  0  0  0
  1  2  1  0  0  0
  2  3  1  0  0  0
  3  4  1  0  0  0
  4  5  2  0  0  0
  4  6  1  0  0  0
  1  7  1  0  0  0
  1  8  1  0  0  0
  1  9  1  0  0  0
  2 10  1  0  0  0
  2 11  1  0  0  0
  6 12  1  0  0  0
  6 13  1  0  0  0
  6 14  1  0  0  0
 15 16  1  0  0  0
 16 17  1  0  0  0
 17 18  1  0  0  0
 18 19  2  0  0  0
 18 20  1  0  0  0
 15 21  1  0  0  0
 15 22  1  0  0  0
 15 23  1  0  0  0
 16 24  1  0  0  0
 16 25  1  0  0  0
 20 26  1  0  0  0
 20 27  1  0  0  0
 20 28  1  0  0  0
M  END
$$$$
