


 28 26  0  0  1  0            999 V2000
    0.2743   -2.3826    3.1901 C   0  0  0  0  0  0
   -1.3022   -2.2998    3.3868 C   0  0  0  0  0  0
   -1.7227   -2.5864    4.6759 O   0  0  0  0  0  0
   -2.0333   -1.5907    5.5861 C   0  0  0  0  0  0
   -2.2024   -0.4013    5.3738 O   0  0  0  0  0  0
   -2.0278   -2.2913    6.9521 C   0  0  0  0  0  0
    0.7045   -1.6725    3.9163 H   0  0  0  0  0  0
    0.4552   -1.9978    2.1723 H   0  0  0  0  0  0
    0.7909   -3.3513    3.2969 H   0  0  0  0  0  0
   -1.7024   -1.3273    3.0410 H   0  0  0  0  0  0
   -1.8304   -3.0980    2.8307 H   0  0  0  0  0  0
   -2.9172   -1.9549    7.5111 H   0  0  0  0  0  0
   -1.1296   -2.0653    7.5511 H   0  0  0  0  0  0
   -2.0921   -3.3835    6.8128 H   0  0  0  0  0  0
    0.9902   -4.1575    0.1722 C   0  0  0  0  0  0
   -0.1484   -5.0429    0.6827 C   0  0  0  0  0  0
   -1.2162   -5.1158   -0.2889 O   0  0  0  0  0  0
   -2.1281   -4.1551   -0.1841 C   0  0  0  0  0  0
   -2.0676   -3.0264    0.4022 O   0  0  0  0  0  0
   -3.3374   -4.4664   -1.0431 C   0  0  0  0  0  0
    1.8390   -4.2478    0.8708 H   0  0  0  0  0  0
    0.6458   -3.1097    0.1705 H   0  0  0  0  0  0
    1.3403   -4.4144   -0.8418 H   0  0  0  0  0  0
    0.2182   -6.0841    0.7669 H   0  0  0  0  0  0
   -0.4973   -4.7269    1.6846 H   0  0  0  0  0  0
   -3.5576   -3.5809   -1.6627 H   0  0  0  0  0  0
   -4.2210   -4.6895   -0.4217 H   0  0  0  0  0  0
   -3.1505   -5.3248   -1.7100 H   0  0  0  0  0  0
  1  2  1  0  0  0
  2  3  1  0  0  0
  3  4  1  0  0  0
  4  5  2  0  0  0
  4  6  1  0  0  0
  1  7  1  0  0  0
  1  8  1  0  0  0
  1  9  1  0  0  0
  2 10  1  0  0  0
  2 11  1  0  0  0
  6 12  1  0  0  0
  6 13  1  0  0  0
  6 14  1  0  0  0
 15 16  1  0  0  0
 16 17  1  0  0  0
 17 18  1  0  0  0
 18 19  2  0  0  0
 18 20  1  0  0  0
 15 21  1  0  0  0
 15 22  1  0  0  0
 15 23  1  0  0  0
 16 24  1  0  0  0
 16 25  1  0  0  0
 20 26  1  0  0  0
 20 27  1  0  0  0
 20 28  1  0  0  0
M  END
$$$$
