


 15 13  0  0  1  0            999 V2000
    2.8844   -0.3308    0.8216 C   0  0  0  0  0  0
    2.8498   -0.5731   -0.3202 N   0  0  0  0  0  0
    2.9163   -0.1073    1.8746 H   0  0  0  0  0  0
    2.3789    2.8069    2.4438 C   0  0  0  0  0  0
    2.5415    2.6001    3.8696 N   0  0  0  0  0  0
    2.8231    1.3650    4.3698 C   0  0  0  0  0  0
    2.9487    0.3885    3.6367 O   0  0  0  0  0  0
    2.9657    1.2974    5.8755 C   0  0  0  0  0  0
    2.1573    3.8712    2.2576 H   0  0  0  0  0  0
    1.5466    2.2000    2.0492 H   0  0  0  0  0  0
    3.2993    2.5386    1.8984 H   0  0  0  0  0  0
    2.4444    3.3893    4.5133 H   0  0  0  0  0  0
    2.0331    1.6087    6.3755 H   0  0  0  0  0  0
    3.1916    0.2581    6.1679 H   0  0  0  0  0  0
    3.7858    1.9472    6.2246 H   0  0  0  0  0  0
  1  2  3  0  0  0
  1  3  1  0  0  0
  4  5  1  0  0  0
  5  6  1  0  0  0
  6  7  2  0  0  0
  6  8  1  0  0  0
  4  9  1  0  0  0
  4 10  1  0  0  0
  4 11  1  0  0  0
  5 12  1  0  0  0
  8 13  1  0  0  0
  8 14  1  0  0  0
  8 15  1  0  0  0
M  END
$$$$
