


 26 24  0  0  1  0            999 V2000
    0.0000    0.0000    0.0000 C   0  0  0  0  0  0
    0.4284   -1.0705   -1.0420 C   0  0  0  0  0  0
    0.0833   -0.5196   -2.4306 C   0  0  0  0  0  0
   -1.5546    0.1093   -2.6520 S   0  0  0  0  0  0
   -1.3700    0.9855   -4.4591 S   0  0  0  0  0  0
    0.2969   -0.2743    1.0263 H   0  0  0  0  0  0
   -1.0696    0.2695    0.0034 H   0  0  0  0  0  0
    0.5841    0.8823   -0.3113 H   0  0  0  0  0  0
    1.5226   -1.2319   -0.9964 H   0  0  0  0  0  0
   -0.0638   -2.0404   -0.8360 H   0  0  0  0  0  0
    0.8413    0.2191   -2.7548 H   0  0  0  0  0  0
    0.1355   -1.3816   -3.1232 H   0  0  0  0  0  0
   -1.1676    2.2599   -4.0623 H   0  0  0  0  0  0
   -1.6934   -3.5399   -7.0926 C   0  0  0  0  0  0
   -0.3605   -2.9930   -6.5558 C   0  0  0  0  0  0
    0.3914   -2.2016   -7.6060 C   0  0  0  0  0  0
    1.5827   -1.1342   -6.7353 S   0  0  0  0  0  0
    2.9439   -0.3947   -8.3735 S   0  0  0  0  0  0
   -2.3910   -2.7158   -7.3181 H   0  0  0  0  0  0
   -2.1403   -4.1747   -6.3091 H   0  0  0  0  0  0
   -1.5599   -4.1471   -8.0037 H   0  0  0  0  0  0
   -0.6005   -2.2274   -5.7931 H   0  0  0  0  0  0
    0.1891   -3.8105   -6.0508 H   0  0  0  0  0  0
    0.8103   -2.8401   -8.4075 H   0  0  0  0  0  0
   -0.3360   -1.5097   -8.0724 H   0  0  0  0  0  0
    3.7904   -1.4421   -8.2796 H   0  0  0  0  0  0
  1  2  1  0  0  0
  2  3  1  0  0  0
  3  4  1  0  0  0
  4  5  1  0  0  0
  1  6  1  0  0  0
  1  7  1  0  0  0
  1  8  1  0  0  0
  2  9  1  0  0  0
  2 10  1  0  0  0
  3 11  1  0  0  0
  3 12  1  0  0  0
  5 13  1  0  0  0
 14 15  1  0  0  0
 15 16  1  0  0  0
 16 17  1  0  0  0
 17 18  1  0  0  0
 14 19  1  0  0  0
 14 20  1  0  0  0
 14 21  1  0  0  0
 15 22  1  0  0  0
 15 23  1  0  0  0
 16 24  1  0  0  0
 16 25  1  0  0  0
 18 26  1  0  0  0
M  END
$$$$
