


 26 24  0  0  1  0            999 V2000
   14.6452   -1.6080    0.0212 C   0  0  0  0  0  0
   14.3325   -0.1734    0.5172 C   0  0  0  0  0  0
   13.8356    0.7388   -0.5745 C   0  0  0  0  0  0
   13.7383    2.5172   -0.2010 S   0  0  0  0  0  0
   12.2793    2.6250    1.3470 S   0  0  0  0  0  0
   13.7785   -2.2835   -0.0741 H   0  0  0  0  0  0
   15.3457   -2.0362    0.7577 H   0  0  0  0  0  0
   15.1543   -1.5489   -0.9555 H   0  0  0  0  0  0
   13.6029   -0.1238    1.3483 H   0  0  0  0  0  0
   15.3025    0.2001    0.8983 H   0  0  0  0  0  0
   14.5208    0.6503   -1.4394 H   0  0  0  0  0  0
   12.8270    0.4310   -0.9113 H   0  0  0  0  0  0
   13.0419    2.5241    2.4564 H   0  0  0  0  0  0
   11.4096   -2.7114    2.1550 C   0  0  0  0  0  0
   10.6190   -2.3230    0.9398 C   0  0  0  0  0  0
   10.3964   -0.8025    0.7618 C   0  0  0  0  0  0
    9.1746   -0.5619   -0.4746 S   0  0  0  0  0  0
   10.1701   -1.1427   -2.2513 S   0  0  0  0  0  0
   11.2338   -2.0348    3.0081 H   0  0  0  0  0  0
   12.4839   -2.6918    1.9059 H   0  0  0  0  0  0
   11.1372   -3.7366    2.4571 H   0  0  0  0  0  0
   11.2844   -2.6197    0.1065 H   0  0  0  0  0  0
    9.7064   -2.9468    0.8804 H   0  0  0  0  0  0
    9.9722   -0.3942    1.6993 H   0  0  0  0  0  0
   11.3279   -0.2457    0.5434 H   0  0  0  0  0  0
   10.6872   -0.0218   -2.7978 H   0  0  0  0  0  0
  1  2  1  0  0  0
  2  3  1  0  0  0
  3  4  1  0  0  0
  4  5  1  0  0  0
  1  6  1  0  0  0
  1  7  1  0  0  0
  1  8  1  0  0  0
  2  9  1  0  0  0
  2 10  1  0  0  0
  3 11  1  0  0  0
  3 12  1  0  0  0
  5 13  1  0  0  0
 14 15  1  0  0  0
 15 16  1  0  0  0
 16 17  1  0  0  0
 17 18  1  0  0  0
 14 19  1  0  0  0
 14 20  1  0  0  0
 14 21  1  0  0  0
 15 22  1  0  0  0
 15 23  1  0  0  0
 16 24  1  0  0  0
 16 25  1  0  0  0
 18 26  1  0  0  0
M  END
$$$$
