


 26 24  0  0  1  0            999 V2000
    4.2162   -1.5633   -4.1280 C   0  0  0  0  0  0
    3.3785   -2.0473   -5.3181 C   0  0  0  0  0  0
    1.8793   -2.2636   -4.8846 C   0  0  0  0  0  0
    1.6546   -3.6724   -3.7036 S   0  0  0  0  0  0
    0.9426   -2.7380   -2.0659 S   0  0  0  0  0  0
    5.1648   -1.0927   -4.4364 H   0  0  0  0  0  0
    4.4464   -2.4391   -3.4982 H   0  0  0  0  0  0
    3.6430   -0.8381   -3.5262 H   0  0  0  0  0  0
    3.4102   -1.3423   -6.1709 H   0  0  0  0  0  0
    3.6956   -3.0404   -5.6904 H   0  0  0  0  0  0
    1.4741   -1.4056   -4.3145 H   0  0  0  0  0  0
    1.2817   -2.3646   -5.8109 H   0  0  0  0  0  0
   -0.3911   -2.6056   -2.2272 H   0  0  0  0  0  0
   -4.1532   -0.7529   -0.5487 C   0  0  0  0  0  0
   -4.0326   -1.7934   -1.6710 C   0  0  0  0  0  0
   -5.3917   -2.5616   -1.8430 C   0  0  0  0  0  0
   -5.5406   -3.2001   -3.6009 S   0  0  0  0  0  0
   -3.7799   -4.3321   -3.6966 S   0  0  0  0  0  0
   -5.0038   -0.0706   -0.7151 H   0  0  0  0  0  0
   -3.2368   -0.1504   -0.4306 H   0  0  0  0  0  0
   -4.3288   -1.3129    0.3852 H   0  0  0  0  0  0
   -3.8201   -1.2965   -2.6371 H   0  0  0  0  0  0
   -3.2367   -2.5426   -1.4957 H   0  0  0  0  0  0
   -5.5194   -3.4512   -1.1967 H   0  0  0  0  0  0
   -6.1888   -1.8390   -1.5823 H   0  0  0  0  0  0
   -2.9012   -3.3370   -3.9417 H   0  0  0  0  0  0
  1  2  1  0  0  0
  2  3  1  0  0  0
  3  4  1  0  0  0
  4  5  1  0  0  0
  1  6  1  0  0  0
  1  7  1  0  0  0
  1  8  1  0  0  0
  2  9  1  0  0  0
  2 10  1  0  0  0
  3 11  1  0  0  0
  3 12  1  0  0  0
  5 13  1  0  0  0
 14 15  1  0  0  0
 15 16  1  0  0  0
 16 17  1  0  0  0
 17 18  1  0  0  0
 14 19  1  0  0  0
 14 20  1  0  0  0
 14 21  1  0  0  0
 15 22  1  0  0  0
 15 23  1  0  0  0
 16 24  1  0  0  0
 16 25  1  0  0  0
 18 26  1  0  0  0
M  END
$$$$
