


  8  6  0  0  1  0            999 V2000
    1.4523    2.4981    2.2129 Na  0  0  0  0  0  0
    2.6530    0.8671    2.5260 O   0  0  0  0  0  0
    1.5577    0.2573    2.3843 C   0  0  0  0  0  0
    0.4116    0.7335    2.1581 O   0  0  0  0  0  0
    1.6371   -1.2923    2.4635 C   0  0  0  0  0  0
    1.8268   -1.6872    1.4513 H   0  0  0  0  0  0
    2.4567   -1.6160    3.1268 H   0  0  0  0  0  0
    0.6920   -1.7212    2.8370 H   0  0  0  0  0  0
  2  3  1  0  0  0
  3  4  2  0  0  0
  3  5  1  0  0  0
  5  6  1  0  0  0
  5  7  1  0  0  0
  5  8  1  0  0  0
M  CHG  1   1   1
M  CHG  1   2  -1
M  END
$$$$
