


 24 22  0  0  1  0            999 V2000
   -8.3370   -8.1912    1.4783 C   0  0  0  0  0  0
   -7.6392   -9.2044    2.3859 C   0  0  0  0  0  0
   -6.3804   -8.6462    3.1460 C   0  0  0  0  0  0
   -5.2033   -8.7570    2.7445 O   0  0  0  0  0  0
   -6.5905   -8.0017    4.3291 N   0  0  0  0  0  0
   -7.9733   -7.2041    1.8099 H   0  0  0  0  0  0
   -9.4399   -8.1828    1.4928 H   0  0  0  0  0  0
   -8.0000   -8.3603    0.4418 H   0  0  0  0  0  0
   -8.3257   -9.6130    3.1522 H   0  0  0  0  0  0
   -7.3319  -10.0408    1.7290 H   0  0  0  0  0  0
   -7.5566   -7.7874    4.5886 H   0  0  0  0  0  0
   -5.8161   -7.5700    4.8394 H   0  0  0  0  0  0
  -12.6407   -6.0086    4.6757 C   0  0  0  0  0  0
  -11.4741   -6.7709    4.0276 C   0  0  0  0  0  0
  -10.6451   -7.4230    5.1188 C   0  0  0  0  0  0
   -9.5280   -7.0327    5.3642 O   0  0  0  0  0  0
  -11.1907   -8.3675    5.8994 N   0  0  0  0  0  0
  -13.1315   -5.3249    3.9628 H   0  0  0  0  0  0
  -12.3299   -5.4296    5.5615 H   0  0  0  0  0  0
  -13.3722   -6.7709    4.9926 H   0  0  0  0  0  0
  -11.9186   -7.4817    3.3046 H   0  0  0  0  0  0
  -10.8385   -6.0655    3.4586 H   0  0  0  0  0  0
  -12.0887   -8.7436    5.5854 H   0  0  0  0  0  0
  -10.7370   -8.7536    6.7310 H   0  0  0  0  0  0
  1  2  1  0  0  0
  2  3  1  0  0  0
  3  4  2  0  0  0
  3  5  1  0  0  0
  1  6  1  0  0  0
  1  7  1  0  0  0
  1  8  1  0  0  0
  2  9  1  0  0  0
  2 10  1  0  0  0
  5 11  1  0  0  0
  5 12  1  0  0  0
 13 14  1  0  0  0
 14 15  1  0  0  0
 15 16  2  0  0  0
 15 17  1  0  0  0
 13 18  1  0  0  0
 13 19  1  0  0  0
 13 20  1  0  0  0
 14 21  1  0  0  0
 14 22  1  0  0  0
 17 23  1  0  0  0
 17 24  1  0  0  0
M  END
$$$$
