


 24 22  0  0  1  0            999 V2000
   -3.9236   -6.3419   -4.5382 C   0  0  0  0  0  0
   -3.5293   -4.9029   -4.9441 C   0  0  0  0  0  0
   -2.6054   -4.2375   -3.8987 C   0  0  0  0  0  0
   -1.9164   -4.9486   -3.2251 O   0  0  0  0  0  0
   -2.7042   -2.9120   -3.6072 N   0  0  0  0  0  0
   -3.9663   -6.3255   -3.4361 H   0  0  0  0  0  0
   -3.1640   -7.0784   -4.8499 H   0  0  0  0  0  0
   -4.9054   -6.6644   -4.9235 H   0  0  0  0  0  0
   -2.9207   -5.0310   -5.8599 H   0  0  0  0  0  0
   -4.3430   -4.1896   -5.1779 H   0  0  0  0  0  0
   -3.3567   -2.3259   -4.1337 H   0  0  0  0  0  0
   -2.2577   -2.5482   -2.7617 H   0  0  0  0  0  0
    2.7926   -4.5637   -0.9727 C   0  0  0  0  0  0
    1.9724   -5.6796   -1.5421 C   0  0  0  0  0  0
    2.8586   -6.8416   -2.0157 C   0  0  0  0  0  0
    3.8921   -6.7673   -2.6240 O   0  0  0  0  0  0
    2.3120   -7.9965   -1.7696 N   0  0  0  0  0  0
    2.3257   -3.5917   -1.2046 H   0  0  0  0  0  0
    3.8200   -4.5651   -1.3741 H   0  0  0  0  0  0
    2.8430   -4.6772    0.1233 H   0  0  0  0  0  0
    1.1790   -6.0595   -0.8701 H   0  0  0  0  0  0
    1.4787   -5.2273   -2.4237 H   0  0  0  0  0  0
    1.4282   -7.9249   -1.2596 H   0  0  0  0  0  0
    2.5620   -8.8701   -2.2397 H   0  0  0  0  0  0
  1  2  1  0  0  0
  2  3  1  0  0  0
  3  4  2  0  0  0
  3  5  1  0  0  0
  1  6  1  0  0  0
  1  7  1  0  0  0
  1  8  1  0  0  0
  2  9  1  0  0  0
  2 10  1  0  0  0
  5 11  1  0  0  0
  5 12  1  0  0  0
 13 14  1  0  0  0
 14 15  1  0  0  0
 15 16  2  0  0  0
 15 17  1  0  0  0
 13 18  1  0  0  0
 13 19  1  0  0  0
 13 20  1  0  0  0
 14 21  1  0  0  0
 14 22  1  0  0  0
 17 23  1  0  0  0
 17 24  1  0  0  0
M  END
$$$$
