


 24 22  0  0  1  0            999 V2000
    2.8132   -0.8271   -3.2683 C   0  0  0  0  0  0
    2.7865   -2.1900   -4.0523 C   0  0  0  0  0  0
    2.8737   -3.3656   -3.0285 C   0  0  0  0  0  0
    1.9851   -3.6154   -2.1846 O   0  0  0  0  0  0
    3.9397   -4.1544   -2.9974 N   0  0  0  0  0  0
    2.2432   -0.7409   -2.3280 H   0  0  0  0  0  0
    2.3965   -0.1138   -3.9991 H   0  0  0  0  0  0
    3.8632   -0.5540   -3.0695 H   0  0  0  0  0  0
    1.7937   -2.2046   -4.5419 H   0  0  0  0  0  0
    3.5532   -2.1254   -4.8481 H   0  0  0  0  0  0
    4.7057   -4.0401   -3.6658 H   0  0  0  0  0  0
    3.9094   -4.9770   -2.3900 H   0  0  0  0  0  0
    5.5177   -1.9198   -0.6521 C   0  0  0  0  0  0
    4.2814   -1.5422    0.1143 C   0  0  0  0  0  0
    4.2019    0.0263    0.3178 C   0  0  0  0  0  0
    4.9020    0.8460   -0.2861 O   0  0  0  0  0  0
    3.3052    0.3064    1.2280 N   0  0  0  0  0  0
    6.3658   -1.4590   -0.1183 H   0  0  0  0  0  0
    5.4997   -1.5326   -1.6847 H   0  0  0  0  0  0
    5.6756   -3.0108   -0.6880 H   0  0  0  0  0  0
    3.3411   -1.9283   -0.3241 H   0  0  0  0  0  0
    4.3835   -1.9764    1.1274 H   0  0  0  0  0  0
    2.9432   -0.4481    1.8164 H   0  0  0  0  0  0
    3.1152    1.2815    1.4721 H   0  0  0  0  0  0
  1  2  1  0  0  0
  2  3  1  0  0  0
  3  4  2  0  0  0
  3  5  1  0  0  0
  1  6  1  0  0  0
  1  7  1  0  0  0
  1  8  1  0  0  0
  2  9  1  0  0  0
  2 10  1  0  0  0
  5 11  1  0  0  0
  5 12  1  0  0  0
 13 14  1  0  0  0
 14 15  1  0  0  0
 15 16  2  0  0  0
 15 17  1  0  0  0
 13 18  1  0  0  0
 13 19  1  0  0  0
 13 20  1  0  0  0
 14 21  1  0  0  0
 14 22  1  0  0  0
 17 23  1  0  0  0
 17 24  1  0  0  0
M  END
$$$$
