


 24 22  0  0  1  0            999 V2000
   -3.9236   -6.3419   -4.5382 C   0  0  0  0  0  0
   -3.5293   -4.9029   -4.9441 C   0  0  0  0  0  0
   -2.6054   -4.2375   -3.8987 C   0  0  0  0  0  0
   -1.9164   -4.9486   -3.2251 O   0  0  0  0  0  0
   -2.7042   -2.9120   -3.6072 N   0  0  0  0  0  0
   -3.9663   -6.3255   -3.4361 H   0  0  0  0  0  0
   -3.1640   -7.0784   -4.8499 H   0  0  0  0  0  0
   -4.9054   -6.6644   -4.9235 H   0  0  0  0  0  0
   -2.9207   -5.0310   -5.8599 H   0  0  0  0  0  0
   -4.3430   -4.1896   -5.1779 H   0  0  0  0  0  0
   -3.3567   -2.3259   -4.1337 H   0  0  0  0  0  0
   -2.2577   -2.5482   -2.7617 H   0  0  0  0  0  0
   -4.9181   -1.2458   -1.6206 C   0  0  0  0  0  0
   -5.8416   -2.1194   -2.4892 C   0  0  0  0  0  0
   -5.8461   -1.8293   -4.0055 C   0  0  0  0  0  0
   -4.8184   -1.6287   -4.6425 O   0  0  0  0  0  0
   -6.9930   -1.7454   -4.6072 N   0  0  0  0  0  0
   -4.3236   -1.8923   -0.9533 H   0  0  0  0  0  0
   -5.5237   -0.5631   -1.0011 H   0  0  0  0  0  0
   -4.2273   -0.6442   -2.2348 H   0  0  0  0  0  0
   -5.4889   -3.1532   -2.3097 H   0  0  0  0  0  0
   -6.9005   -2.0651   -2.1710 H   0  0  0  0  0  0
   -7.8316   -2.0106   -4.0848 H   0  0  0  0  0  0
   -7.0563   -1.5442   -5.6082 H   0  0  0  0  0  0
  1  2  1  0  0  0
  2  3  1  0  0  0
  3  4  2  0  0  0
  3  5  1  0  0  0
  1  6  1  0  0  0
  1  7  1  0  0  0
  1  8  1  0  0  0
  2  9  1  0  0  0
  2 10  1  0  0  0
  5 11  1  0  0  0
  5 12  1  0  0  0
 13 14  1  0  0  0
 14 15  1  0  0  0
 15 16  2  0  0  0
 15 17  1  0  0  0
 13 18  1  0  0  0
 13 19  1  0  0  0
 13 20  1  0  0  0
 14 21  1  0  0  0
 14 22  1  0  0  0
 17 23  1  0  0  0
 17 24  1  0  0  0
M  END
$$$$
