


 24 22  0  0  1  0            999 V2000
    3.7720    1.1683   -0.2127 C   0  0  0  0  0  0
    4.7302    0.0734   -0.7415 C   0  0  0  0  0  0
    4.9036    0.1359   -2.2551 C   0  0  0  0  0  0
    5.3356    1.1368   -2.7631 O   0  0  0  0  0  0
    4.7399   -0.8833   -3.0410 N   0  0  0  0  0  0
    4.3732    2.0198    0.1479 H   0  0  0  0  0  0
    3.2165    0.7436    0.6403 H   0  0  0  0  0  0
    3.0460    1.5398   -0.9554 H   0  0  0  0  0  0
    5.6870    0.0391   -0.1857 H   0  0  0  0  0  0
    4.1830   -0.8649   -0.5277 H   0  0  0  0  0  0
    4.4366   -1.7476   -2.5855 H   0  0  0  0  0  0
    5.0270   -0.8961   -4.0229 H   0  0  0  0  0  0
   -1.4309   -2.8233    7.1938 C   0  0  0  0  0  0
   -0.5091   -3.8255    6.4645 C   0  0  0  0  0  0
    0.8682   -3.1851    6.3207 C   0  0  0  0  0  0
    1.3042   -2.3015    7.0275 O   0  0  0  0  0  0
    1.6236   -3.7611    5.3962 N   0  0  0  0  0  0
   -0.9832   -2.5189    8.1548 H   0  0  0  0  0  0
   -2.4612   -3.1705    7.3800 H   0  0  0  0  0  0
   -1.4707   -1.9434    6.5299 H   0  0  0  0  0  0
   -0.4550   -4.8719    6.8217 H   0  0  0  0  0  0
   -0.9391   -3.8399    5.4445 H   0  0  0  0  0  0
    1.3132   -4.5247    4.7904 H   0  0  0  0  0  0
    2.4891   -3.2589    5.1835 H   0  0  0  0  0  0
  1  2  1  0  0  0
  2  3  1  0  0  0
  3  4  2  0  0  0
  3  5  1  0  0  0
  1  6  1  0  0  0
  1  7  1  0  0  0
  1  8  1  0  0  0
  2  9  1  0  0  0
  2 10  1  0  0  0
  5 11  1  0  0  0
  5 12  1  0  0  0
 13 14  1  0  0  0
 14 15  1  0  0  0
 15 16  2  0  0  0
 15 17  1  0  0  0
 13 18  1  0  0  0
 13 19  1  0  0  0
 13 20  1  0  0  0
 14 21  1  0  0  0
 14 22  1  0  0  0
 17 23  1  0  0  0
 17 24  1  0  0  0
M  END
$$$$
