


 31 30  0  0  1  0            999 V2000
   -0.0633    1.4278    1.3638 C   0  0  0  0  0  0
    0.1629    2.9402    1.3383 C   0  0  0  0  0  0
    1.4906    3.2689    0.6539 C   0  0  0  0  0  0
    1.5512    2.6195   -0.7239 C   0  0  0  0  0  0
    1.3801    1.1720   -0.5832 N   0  0  0  0  0  0
    0.0581    0.8504   -0.0418 C   0  0  0  0  0  0
   -1.0597    1.1891    1.7831 H   0  0  0  0  0  0
    0.6972    0.9475    2.0091 H   0  0  0  0  0  0
   -0.6598    3.4156    0.7704 H   0  0  0  0  0  0
    0.1445    3.3519    2.3657 H   0  0  0  0  0  0
    2.3303    2.8823    1.2630 H   0  0  0  0  0  0
    1.6201    4.3642    0.5588 H   0  0  0  0  0  0
    2.5303    2.8130   -1.2030 H   0  0  0  0  0  0
    0.7683    3.0682   -1.3651 H   0  0  0  0  0  0
    1.4918    0.7236   -1.5014 H   0  0  0  0  0  0
   -0.0555   -0.2506   -0.0216 H   0  0  0  0  0  0
   -0.7567    1.2614   -0.6684 H   0  0  0  0  0  0
    6.0749   -0.4424    2.8024 C   0  0  0  0  0  0
    5.2146   -1.0062    3.9328 C   0  0  0  0  0  0
    4.4821   -2.2838    3.5292 C   0  0  0  0  0  0
    3.6217   -2.8476    4.6595 C   0  0  0  0  0  0
    6.5910    0.4785    3.1224 H   0  0  0  0  0  0
    5.4442   -0.2067    1.9288 H   0  0  0  0  0  0
    6.8335   -1.1834    2.4990 H   0  0  0  0  0  0
    5.8543   -1.2238    4.8096 H   0  0  0  0  0  0
    4.4679   -0.2491    4.2406 H   0  0  0  0  0  0
    3.8424   -2.0662    2.6523 H   0  0  0  0  0  0
    5.2288   -3.0409    3.2214 H   0  0  0  0  0  0
    2.8632   -2.1066    4.9629 H   0  0  0  0  0  0
    4.2525   -3.0833    5.5332 H   0  0  0  0  0  0
    3.1057   -3.7684    4.3395 H   0  0  0  0  0  0
  1  2  1  0  0  0
  2  3  1  0  0  0
  3  4  1  0  0  0
  4  5  1  0  0  0
  5  6  1  0  0  0
  1  6  1  0  0  0
  1  7  1  0  0  0
  1  8  1  0  0  0
  2  9  1  0  0  0
  2 10  1  0  0  0
  3 11  1  0  0  0
  3 12  1  0  0  0
  4 13  1  0  0  0
  4 14  1  0  0  0
  5 15  1  0  0  0
  6 16  1  0  0  0
  6 17  1  0  0  0
 18 19  1  0  0  0
 19 20  1  0  0  0
 20 21  1  0  0  0
 18 22  1  0  0  0
 18 23  1  0  0  0
 18 24  1  0  0  0
 19 25  1  0  0  0
 19 26  1  0  0  0
 20 27  1  0  0  0
 20 28  1  0  0  0
 21 29  1  0  0  0
 21 30  1  0  0  0
 21 31  1  0  0  0
M  END
$$$$
