


 19 17  0  0  1  0            999 V2000
    2.4719    0.8857   -0.7402 C   0  0  0  0  0  0
    2.4169    0.1495    0.5785 C   0  0  0  0  0  0
    1.3586   -0.1670    1.0969 O   0  0  0  0  0  0
    3.7478   -0.1721    1.2182 C   0  0  0  0  0  0
    1.4534    1.0656   -1.1235 H   0  0  0  0  0  0
    3.0290    0.2940   -1.4860 H   0  0  0  0  0  0
    2.9771    1.8580   -0.6140 H   0  0  0  0  0  0
    4.3471   -0.8140    0.5508 H   0  0  0  0  0  0
    4.3121    0.7550    1.4146 H   0  0  0  0  0  0
    3.5975   -0.7016    2.1740 H   0  0  0  0  0  0
    0.6245    5.4349    2.3649 C   0  0  0  0  0  0
    1.8912    5.2208    3.1382 C   0  0  0  0  0  0
    3.0618    5.7961    2.8503 C   0  0  0  0  0  0
    0.7985    6.1326    1.5285 H   0  0  0  0  0  0
   -0.1565    5.8578    3.0190 H   0  0  0  0  0  0
    0.2598    4.4781    1.9548 H   0  0  0  0  0  0
    1.8370    4.5408    3.9986 H   0  0  0  0  0  0
    3.9560    5.6009    3.4532 H   0  0  0  0  0  0
    3.1599    6.4812    2.0005 H   0  0  0  0  0  0
  1  2  1  0  0  0
  2  3  2  0  0  0
  2  4  1  0  0  0
  1  5  1  0  0  0
  1  6  1  0  0  0
  1  7  1  0  0  0
  4  8  1  0  0  0
  4  9  1  0  0  0
  4 10  1  0  0  0
 11 12  1  0  0  0
 12 13  2  0  0  0
 11 14  1  0  0  0
 11 15  1  0  0  0
 11 16  1  0  0  0
 12 17  1  0  0  0
 13 18  1  0  0  0
 13 19  1  0  0  0
M  END
$$$$
