


  7  5  0  0  1  0            999 V2000
    1.2063   -1.8930    1.3317 O   0  0  0  0  0  0
    1.2053   -1.6674    2.2895 H   0  0  0  0  0  0
    1.5385   -2.8185    1.2953 H   0  0  0  0  0  0
    0.0000    0.0000    0.0000 S   0  0  0  0  0  0
   -1.0978    0.2203    1.7600 S   0  0  0  0  0  0
    0.9814   -0.7684    0.5186 H   0  0  0  0  0  0
   -0.5184    1.3193    2.2881 H   0  0  0  0  0  0
  1  2  1  0  0  0
  1  3  1  0  0  0
  4  5  1  0  0  0
  4  6  1  0  0  0
  5  7  1  0  0  0
M  END
$$$$
