


  7  5  0  0  1  0            999 V2000
    1.1728    3.1439   -0.0940 O   0  0  0  0  0  0
    0.8723    2.9333   -1.0070 H   0  0  0  0  0  0
    1.0987    2.2927    0.3941 H   0  0  0  0  0  0
    0.0000    0.0000    0.0000 S   0  0  0  0  0  0
    2.0131   -0.3718   -0.2969 S   0  0  0  0  0  0
   -0.4768   -1.0508   -0.7007 H   0  0  0  0  0  0
    2.1038   -1.1324    0.8147 H   0  0  0  0  0  0
  1  2  1  0  0  0
  1  3  1  0  0  0
  4  5  1  0  0  0
  4  6  1  0  0  0
  5  7  1  0  0  0
M  END
$$$$
