


  7  5  0  0  1  0            999 V2000
    3.3567    3.1836   -0.5014 O   0  0  0  0  0  0
    3.2736    3.0740   -1.4757 H   0  0  0  0  0  0
    4.3133    3.0450   -0.3170 H   0  0  0  0  0  0
    0.0000    0.0000    0.0000 S   0  0  0  0  0  0
    1.8755   -0.9740    0.0675 S   0  0  0  0  0  0
    0.4476    1.1883   -0.4584 H   0  0  0  0  0  0
    2.4149   -0.2671    1.0834 H   0  0  0  0  0  0
  1  2  1  0  0  0
  1  3  1  0  0  0
  4  5  1  0  0  0
  4  6  1  0  0  0
  5  7  1  0  0  0
M  END
$$$$
