


  7  5  0  0  1  0            999 V2000
   -3.7040   -0.7944    1.9137 O   0  0  0  0  0  0
   -4.2535   -0.2617    2.5322 H   0  0  0  0  0  0
   -2.8898   -1.0056    2.4244 H   0  0  0  0  0  0
    0.0000    0.0000    0.0000 S   0  0  0  0  0  0
    1.8398    1.0748    0.2288 S   0  0  0  0  0  0
    0.1893   -0.8953    0.9926 H   0  0  0  0  0  0
    1.3465    1.9444    1.1360 H   0  0  0  0  0  0
  1  2  1  0  0  0
  1  3  1  0  0  0
  4  5  1  0  0  0
  4  6  1  0  0  0
  5  7  1  0  0  0
M  END
$$$$
