


  7  5  0  0  1  0            999 V2000
    1.5772    0.1896    2.8426 O   0  0  0  0  0  0
    1.7821   -0.2449    3.7014 H   0  0  0  0  0  0
    0.5970    0.1447    2.7696 H   0  0  0  0  0  0
    0.0000    0.0000    0.0000 S   0  0  0  0  0  0
    0.8274    1.9875    0.1971 S   0  0  0  0  0  0
    0.1475   -0.3598    1.2928 H   0  0  0  0  0  0
    2.1437    1.8071   -0.0421 H   0  0  0  0  0  0
  1  2  1  0  0  0
  1  3  1  0  0  0
  4  5  1  0  0  0
  4  6  1  0  0  0
  5  7  1  0  0  0
M  END
$$$$
