


  7  5  0  0  1  0            999 V2000
    1.0481   -3.2682   -1.4685 O   0  0  0  0  0  0
    1.1831   -2.5303   -2.1054 H   0  0  0  0  0  0
    1.8172   -3.2121   -0.8573 H   0  0  0  0  0  0
    0.0000    0.0000    0.0000 S   0  0  0  0  0  0
    1.9160   -0.2942    0.7649 S   0  0  0  0  0  0
   -0.1921   -1.2380   -0.5029 H   0  0  0  0  0  0
    2.6875   -0.4973   -0.3242 H   0  0  0  0  0  0
  1  2  1  0  0  0
  1  3  1  0  0  0
  4  5  1  0  0  0
  4  6  1  0  0  0
  5  7  1  0  0  0
M  END
$$$$
