


  7  5  0  0  1  0            999 V2000
   -2.3707    2.0637    1.5791 O   0  0  0  0  0  0
   -1.5005    1.7121    1.8744 H   0  0  0  0  0  0
   -2.1510    2.6958    0.8576 H   0  0  0  0  0  0
    0.0000    0.0000    0.0000 S   0  0  0  0  0  0
   -0.3207    0.1558   -2.0620 S   0  0  0  0  0  0
    0.7611    1.0265    0.4355 H   0  0  0  0  0  0
    0.7986   -0.4955   -2.4435 H   0  0  0  0  0  0
  1  2  1  0  0  0
  1  3  1  0  0  0
  4  5  1  0  0  0
  4  6  1  0  0  0
  5  7  1  0  0  0
M  END
$$$$
