


  7  5  0  0  1  0            999 V2000
   -4.9364    3.7492   -4.2563 O   0  0  0  0  0  0
   -4.2078    4.2799   -3.8618 H   0  0  0  0  0  0
   -5.5096    3.5090   -3.4934 H   0  0  0  0  0  0
    0.0000    0.0000    0.0000 S   0  0  0  0  0  0
    1.1428   -1.6697   -0.4875 S   0  0  0  0  0  0
   -1.1959   -0.6105    0.1398 H   0  0  0  0  0  0
    1.4639   -2.0557    0.7656 H   0  0  0  0  0  0
  1  2  1  0  0  0
  1  3  1  0  0  0
  4  5  1  0  0  0
  4  6  1  0  0  0
  5  7  1  0  0  0
M  END
$$$$
