


  7  5  0  0  1  0            999 V2000
   -4.4195   -4.9040    3.4188 O   0  0  0  0  0  0
   -4.6129   -5.8101    3.7501 H   0  0  0  0  0  0
   -4.8108   -4.8812    2.5162 H   0  0  0  0  0  0
    0.0000    0.0000    0.0000 S   0  0  0  0  0  0
    1.6716   -1.0271    0.6399 S   0  0  0  0  0  0
   -0.7728   -0.2258    1.0836 H   0  0  0  0  0  0
    1.2859   -2.2730    0.2914 H   0  0  0  0  0  0
  1  2  1  0  0  0
  1  3  1  0  0  0
  4  5  1  0  0  0
  4  6  1  0  0  0
  5  7  1  0  0  0
M  END
$$$$
