


  7  5  0  0  1  0            999 V2000
    0.3765   -0.4174   -3.0875 O   0  0  0  0  0  0
   -0.2681   -0.4975   -3.8266 H   0  0  0  0  0  0
   -0.1659   -0.5205   -2.2730 H   0  0  0  0  0  0
    0.0000    0.0000    0.0000 S   0  0  0  0  0  0
   -0.8149    1.3553   -1.3626 S   0  0  0  0  0  0
   -1.1020   -0.7090    0.3245 H   0  0  0  0  0  0
   -0.8696    0.6215   -2.4944 H   0  0  0  0  0  0
  1  2  1  0  0  0
  1  3  1  0  0  0
  4  5  1  0  0  0
  4  6  1  0  0  0
  5  7  1  0  0  0
M  END
$$$$
