


  7  5  0  0  1  0            999 V2000
   -2.6641   -5.8866    4.8996 O   0  0  0  0  0  0
   -3.0025   -6.6049    5.4807 H   0  0  0  0  0  0
   -1.8400   -6.2532    4.5063 H   0  0  0  0  0  0
    0.0000    0.0000    0.0000 S   0  0  0  0  0  0
    1.3909   -0.9558   -1.2756 S   0  0  0  0  0  0
    0.0176   -0.7471    1.1243 H   0  0  0  0  0  0
    2.4086   -0.3915   -0.5912 H   0  0  0  0  0  0
  1  2  1  0  0  0
  1  3  1  0  0  0
  4  5  1  0  0  0
  4  6  1  0  0  0
  5  7  1  0  0  0
M  END
$$$$
