


  7  5  0  0  1  0            999 V2000
   -3.0994   -1.2677   -2.8144 O   0  0  0  0  0  0
   -3.6372   -0.4475   -2.8940 H   0  0  0  0  0  0
   -2.2936   -0.9892   -2.3231 H   0  0  0  0  0  0
    0.0000    0.0000    0.0000 S   0  0  0  0  0  0
   -1.8783    0.2661   -0.7279 S   0  0  0  0  0  0
   -0.0158   -1.3397    0.1656 H   0  0  0  0  0  0
   -2.4309    0.4725    0.4864 H   0  0  0  0  0  0
  1  2  1  0  0  0
  1  3  1  0  0  0
  4  5  1  0  0  0
  4  6  1  0  0  0
  5  7  1  0  0  0
M  END
$$$$
