


  7  5  0  0  1  0            999 V2000
    2.8884   -2.9394   -0.3492 O   0  0  0  0  0  0
    3.5889   -3.1333   -1.0125 H   0  0  0  0  0  0
    2.0514   -3.2220   -0.7825 H   0  0  0  0  0  0
    0.0000    0.0000    0.0000 S   0  0  0  0  0  0
   -0.4794   -0.8845   -1.7282 S   0  0  0  0  0  0
    1.3340    0.1497   -0.1436 H   0  0  0  0  0  0
   -0.1194   -2.1467   -1.4122 H   0  0  0  0  0  0
  1  2  1  0  0  0
  1  3  1  0  0  0
  4  5  1  0  0  0
  4  6  1  0  0  0
  5  7  1  0  0  0
M  END
$$$$
