


  9  7  0  0  1  0            999 V2000
    0.0000    0.0000    0.0000 N   0  0  0  0  0  0
   -1.2785    0.4247   -0.1633 C   0  0  0  0  0  0
   -1.5626    1.6191    0.0691 O   0  0  0  0  0  0
    0.6858    0.7199    0.2406 H   0  0  0  0  0  0
    0.2937   -0.9755   -0.0928 H   0  0  0  0  0  0
   -2.0230   -0.3288   -0.5178 H   0  0  0  0  0  0
   -1.3974    6.1266    2.5065 O   0  0  0  0  0  0
   -1.2825    6.6325    1.6704 H   0  0  0  0  0  0
   -1.9047    5.3253    2.2438 H   0  0  0  0  0  0
  1  2  1  0  0  0
  2  3  2  0  0  0
  1  4  1  0  0  0
  1  5  1  0  0  0
  2  6  1  0  0  0
  7  8  1  0  0  0
  7  9  1  0  0  0
M  END
$$$$
