


 16 14  0  0  1  0            999 V2000
    3.3153    3.5228    0.1670 C   0  0  0  0  0  0
    2.4107    2.4582    0.7118 C   0  0  0  0  0  0
    1.2064    2.5268    0.8181 O   0  0  0  0  0  0
    3.1177    1.3607    1.0897 O   0  0  0  0  0  0
    2.7269    4.4056   -0.1347 H   0  0  0  0  0  0
    3.8633    3.1475   -0.7135 H   0  0  0  0  0  0
    4.0476    3.8327    0.9315 H   0  0  0  0  0  0
    2.4403    0.7167    1.4338 H   0  0  0  0  0  0
   -0.8154    0.7247    2.9822 C   0  0  0  0  0  0
   -0.3182   -0.1257    1.8527 C   0  0  0  0  0  0
    0.9833   -0.4892    2.0729 F   0  0  0  0  0  0
   -1.0463   -1.2826    1.7768 F   0  0  0  0  0  0
   -0.7381    0.1719    3.9335 H   0  0  0  0  0  0
   -1.8708    1.0018    2.8210 H   0  0  0  0  0  0
   -0.2175    1.6481    3.0622 H   0  0  0  0  0  0
   -0.3632    0.3611    0.8573 H   0  0  0  0  0  0
  1  2  1  0  0  0
  2  3  2  0  0  0
  2  4  1  0  0  0
  1  5  1  0  0  0
  1  6  1  0  0  0
  1  7  1  0  0  0
  4  8  1  0  0  0
  9 10  1  0  0  0
 10 11  1  0  0  0
 10 12  1  0  0  0
  9 13  1  0  0  0
  9 14  1  0  0  0
  9 15  1  0  0  0
 10 16  1  0  0  0
M  END
$$$$
