


 16 14  0  0  1  0            999 V2000
    3.3153    3.5228    0.1670 C   0  0  0  0  0  0
    2.4107    2.4582    0.7118 C   0  0  0  0  0  0
    1.2064    2.5268    0.8181 O   0  0  0  0  0  0
    3.1177    1.3607    1.0897 O   0  0  0  0  0  0
    2.7269    4.4056   -0.1347 H   0  0  0  0  0  0
    3.8633    3.1475   -0.7135 H   0  0  0  0  0  0
    4.0476    3.8327    0.9315 H   0  0  0  0  0  0
    2.4403    0.7167    1.4338 H   0  0  0  0  0  0
   -0.9559    0.4854    3.0963 C   0  0  0  0  0  0
   -0.4586   -0.3650    1.9668 C   0  0  0  0  0  0
    0.8429   -0.7284    2.1871 F   0  0  0  0  0  0
   -1.1868   -1.5219    1.8909 F   0  0  0  0  0  0
   -0.8786   -0.0674    4.0476 H   0  0  0  0  0  0
   -2.0113    0.7625    2.9351 H   0  0  0  0  0  0
   -0.3580    1.4088    3.1764 H   0  0  0  0  0  0
   -0.5037    0.1218    0.9714 H   0  0  0  0  0  0
  1  2  1  0  0  0
  2  3  2  0  0  0
  2  4  1  0  0  0
  1  5  1  0  0  0
  1  6  1  0  0  0
  1  7  1  0  0  0
  4  8  1  0  0  0
  9 10  1  0  0  0
 10 11  1  0  0  0
 10 12  1  0  0  0
  9 13  1  0  0  0
  9 14  1  0  0  0
  9 15  1  0  0  0
 10 16  1  0  0  0
M  END
$$$$
