


 15 13  0  0  1  0            999 V2000
    7.3961    0.0680   -0.5898 C   0  0  0  0  0  0
    6.8856    1.2967   -0.4943 C   0  0  0  0  0  0
    6.7760   -0.8188   -0.4155 H   0  0  0  0  0  0
    8.4502   -0.0898   -0.8452 H   0  0  0  0  0  0
    5.8315    1.4544   -0.2389 H   0  0  0  0  0  0
    7.5058    2.1834   -0.6687 H   0  0  0  0  0  0
    0.5083    0.0602    2.2919 C   0  0  0  0  0  0
    0.1554    0.8343    1.1629 O   0  0  0  0  0  0
   -0.0413    0.0053    0.0347 C   0  0  0  0  0  0
    0.6500    0.7500    3.1409 H   0  0  0  0  0  0
    1.4482   -0.4931    2.1277 H   0  0  0  0  0  0
   -0.2837   -0.6616    2.5535 H   0  0  0  0  0  0
    0.8751   -0.5504   -0.2260 H   0  0  0  0  0  0
   -0.8568   -0.7188    0.1998 H   0  0  0  0  0  0
   -0.3133    0.6538   -0.8150 H   0  0  0  0  0  0
  1  2  2  0  0  0
  1  3  1  0  0  0
  1  4  1  0  0  0
  2  5  1  0  0  0
  2  6  1  0  0  0
  7  8  1  0  0  0
  8  9  1  0  0  0
  7 10  1  0  0  0
  7 11  1  0  0  0
  7 12  1  0  0  0
  9 13  1  0  0  0
  9 14  1  0  0  0
  9 15  1  0  0  0
M  END
$$$$
