


 21 19  0  0  1  0            999 V2000
    3.5675    1.6925    2.5897 C   0  0  0  0  0  0
    3.8598    0.2542    2.1735 C   0  0  0  0  0  0
    2.7997   -0.6597    2.6967 N   0  0  0  0  0  0
    1.8685   -0.3863    2.3229 H   0  0  0  0  0  0
    2.9862   -1.6448    2.4203 H   0  0  0  0  0  0
    2.7613   -0.6135    3.7350 H   0  0  0  0  0  0
    2.5982    2.0324    2.1877 H   0  0  0  0  0  0
    4.3619    2.3467    2.1927 H   0  0  0  0  0  0
    3.5468    1.7910    3.6881 H   0  0  0  0  0  0
    3.8864    0.1466    1.0721 H   0  0  0  0  0  0
    4.8330   -0.0943    2.5694 H   0  0  0  0  0  0
   -2.5822   -0.3140    0.2914 C   0  0  0  0  0  0
   -1.1561    0.7590    0.5684 S   0  0  0  0  0  0
   -0.0582    0.4593   -1.1227 S   0  0  0  0  0  0
   -0.8103    1.6276   -2.2766 C   0  0  0  0  0  0
   -3.2245   -0.2470    1.1855 H   0  0  0  0  0  0
   -2.2756   -1.3650    0.1564 H   0  0  0  0  0  0
   -3.1703   -0.0034   -0.5885 H   0  0  0  0  0  0
   -1.8681    1.3889   -2.4781 H   0  0  0  0  0  0
   -0.7487    2.6624   -1.8998 H   0  0  0  0  0  0
   -0.2487    1.5640   -3.2238 H   0  0  0  0  0  0
  1  2  1  0  0  0
  2  3  1  0  0  0
  3  4  1  0  0  0
  3  5  1  0  0  0
  3  6  1  0  0  0
  1  7  1  0  0  0
  1  8  1  0  0  0
  1  9  1  0  0  0
  2 10  1  0  0  0
  2 11  1  0  0  0
 12 13  1  0  0  0
 13 14  1  0  0  0
 14 15  1  0  0  0
 12 16  1  0  0  0
 12 17  1  0  0  0
 12 18  1  0  0  0
 15 19  1  0  0  0
 15 20  1  0  0  0
 15 21  1  0  0  0
M  CHG  1   3   1
M  END
$$$$
