


 23 23  0  0  1  0            999 V2000
    0.3646   -0.1719    0.7994 O   0  0  0  0  0  0
    0.9328   -0.0533   -0.4439 C   0  0  0  0  0  0
    0.8273   -1.1507   -1.2990 C   0  0  0  0  0  0
    1.3850   -1.0878   -2.5736 C   0  0  0  0  0  0
    2.0483    0.0630   -3.0027 C   0  0  0  0  0  0
    2.1501    1.1557   -2.1433 C   0  0  0  0  0  0
    1.5942    1.1011   -0.8650 C   0  0  0  0  0  0
    0.5144    0.6715    1.2918 H   0  0  0  0  0  0
    0.3026   -2.0489   -0.9475 H   0  0  0  0  0  0
    1.2986   -1.9547   -3.2419 H   0  0  0  0  0  0
    2.4863    0.1077   -4.0085 H   0  0  0  0  0  0
    2.6689    2.0677   -2.4671 H   0  0  0  0  0  0
    1.6753    1.9628   -0.1893 H   0  0  0  0  0  0
    2.9523    1.8583    3.2992 C   0  0  0  0  0  0
    3.9383    2.4065    4.1118 C   0  0  0  0  0  0
    3.5903    3.5269    4.8578 C   0  0  0  0  0  0
    2.3639    4.0647    4.8059 N   0  0  0  0  0  0
    1.4952    3.4544    3.9899 C   0  0  0  0  0  0
    1.7182    2.3759    3.2284 N   0  0  0  0  0  0
    3.1486    0.9733    2.6795 H   0  0  0  0  0  0
    4.9463    1.9741    4.1620 H   0  0  0  0  0  0
    4.3126    4.0178    5.5233 H   0  0  0  0  0  0
    0.4872    3.8868    3.9397 H   0  0  0  0  0  0
  1  2  1  0  0  0
  2  3  2  0  0  0
  3  4  1  0  0  0
  4  5  2  0  0  0
  5  6  1  0  0  0
  6  7  2  0  0  0
  2  7  1  0  0  0
  1  8  1  0  0  0
  3  9  1  0  0  0
  4 10  1  0  0  0
  5 11  1  0  0  0
  6 12  1  0  0  0
  7 13  1  0  0  0
 14 15  2  0  0  0
 15 16  1  0  0  0
 16 17  2  0  0  0
 17 18  1  0  0  0
 18 19  2  0  0  0
 14 19  1  0  0  0
 14 20  1  0  0  0
 15 21  1  0  0  0
 16 22  1  0  0  0
 18 23  1  0  0  0
M  END
$$$$
