


 24 24  0  0  1  0            999 V2000
    2.4687    2.9028    0.8733 C   0  0  0  0  0  0
    3.4481    1.6898    1.7784 S   0  0  0  0  0  0
    1.9845    0.9549    2.5372 C   0  0  0  0  0  0
    1.1679    2.0919    3.1275 C   0  0  0  0  0  0
    1.0281    3.4088    1.8794 S   0  0  0  0  0  0
    2.1212    2.4952   -0.0955 H   0  0  0  0  0  0
    3.1057    3.7825    0.6592 H   0  0  0  0  0  0
    2.3205    0.2387    3.3116 H   0  0  0  0  0  0
    1.4018    0.3887    1.7852 H   0  0  0  0  0  0
    1.6476    2.4867    4.0438 H   0  0  0  0  0  0
    0.1446    1.7667    3.3967 H   0  0  0  0  0  0
    0.3951    2.6177   -0.6749 O   0  0  0  0  0  0
    0.2849    1.4591    0.0518 C   0  0  0  0  0  0
    1.0972    0.3902   -0.3281 C   0  0  0  0  0  0
    1.0285   -0.8112    0.3731 C   0  0  0  0  0  0
    0.1544   -0.9550    1.4519 C   0  0  0  0  0  0
   -0.6542    0.1169    1.8261 C   0  0  0  0  0  0
   -0.5917    1.3238    1.1292 C   0  0  0  0  0  0
   -0.2320    3.2820   -0.2984 H   0  0  0  0  0  0
    1.7796    0.5183   -1.1786 H   0  0  0  0  0  0
    1.6703   -1.6487    0.0693 H   0  0  0  0  0  0
    0.1039   -1.9042    2.0015 H   0  0  0  0  0  0
   -1.3465    0.0184    2.6726 H   0  0  0  0  0  0
   -1.2294    2.1672    1.4252 H   0  0  0  0  0  0
  1  2  1  0  0  0
  2  3  1  0  0  0
  3  4  1  0  0  0
  4  5  1  0  0  0
  1  5  1  0  0  0
  1  6  1  0  0  0
  1  7  1  0  0  0
  3  8  1  0  0  0
  3  9  1  0  0  0
  4 10  1  0  0  0
  4 11  1  0  0  0
 12 13  1  0  0  0
 13 14  2  0  0  0
 14 15  1  0  0  0
 15 16  2  0  0  0
 16 17  1  0  0  0
 17 18  2  0  0  0
 13 18  1  0  0  0
 12 19  1  0  0  0
 14 20  1  0  0  0
 15 21  1  0  0  0
 16 22  1  0  0  0
 17 23  1  0  0  0
 18 24  1  0  0  0
M  END
$$$$
