


 24 22  0  0  1  0            999 V2000
    3.7171    3.1530    9.6495 C   0  0  0  0  0  0
    3.7403    3.0760    8.1402 C   0  0  0  0  0  0
    3.4933    4.3566    7.4721 C   0  0  0  0  0  0
    2.3294    4.7423    6.9133 C   0  0  0  0  0  0
    2.6758    3.0419    9.9957 H   0  0  0  0  0  0
    4.1125    4.1116   10.0254 H   0  0  0  0  0  0
    4.3190    2.3328   10.0756 H   0  0  0  0  0  0
    4.6423    2.7006    7.6198 H   0  0  0  0  0  0
    2.8997    2.4023    7.8851 H   0  0  0  0  0  0
    4.3122    5.0870    7.5117 H   0  0  0  0  0  0
    2.1733    5.7385    6.4840 H   0  0  0  0  0  0
    1.4968    4.0310    6.8661 H   0  0  0  0  0  0
    6.9158    3.8726   -0.6844 C   0  0  0  0  0  0
    7.3599    2.4574   -0.2388 C   0  0  0  0  0  0
    6.9558    2.2154    1.2203 C   0  0  0  0  0  0
    6.4240    1.1241    1.7822 C   0  0  0  0  0  0
    7.2181    3.9492   -1.7424 H   0  0  0  0  0  0
    7.4341    4.6606   -0.1125 H   0  0  0  0  0  0
    5.8286    4.0454   -0.6157 H   0  0  0  0  0  0
    6.8768    1.6463   -0.8169 H   0  0  0  0  0  0
    8.4537    2.3689   -0.3840 H   0  0  0  0  0  0
    7.2805    3.0427    1.8650 H   0  0  0  0  0  0
    6.1475    0.9105    2.8210 H   0  0  0  0  0  0
    6.1720    0.3745    1.0235 H   0  0  0  0  0  0
  1  2  1  0  0  0
  2  3  1  0  0  0
  3  4  2  0  0  0
  1  5  1  0  0  0
  1  6  1  0  0  0
  1  7  1  0  0  0
  2  8  1  0  0  0
  2  9  1  0  0  0
  3 10  1  0  0  0
  4 11  1  0  0  0
  4 12  1  0  0  0
 13 14  1  0  0  0
 14 15  1  0  0  0
 15 16  2  0  0  0
 13 17  1  0  0  0
 13 18  1  0  0  0
 13 19  1  0  0  0
 14 20  1  0  0  0
 14 21  1  0  0  0
 15 22  1  0  0  0
 16 23  1  0  0  0
 16 24  1  0  0  0
M  END
$$$$
