


 24 22  0  0  1  0            999 V2000
    6.7908    3.1999   -4.3604 C   0  0  0  0  0  0
    7.3289    4.1003   -5.4511 C   0  0  0  0  0  0
    8.7027    3.7050   -5.9462 C   0  0  0  0  0  0
    9.0439    2.8985   -6.9816 C   0  0  0  0  0  0
    5.8351    3.5665   -3.9494 H   0  0  0  0  0  0
    7.5156    3.1047   -3.5344 H   0  0  0  0  0  0
    6.6251    2.2019   -4.7999 H   0  0  0  0  0  0
    6.6550    4.0626   -6.3285 H   0  0  0  0  0  0
    7.3867    5.1538   -5.1160 H   0  0  0  0  0  0
    9.5809    4.1650   -5.4742 H   0  0  0  0  0  0
   10.0735    2.7547   -7.3289 H   0  0  0  0  0  0
    8.2453    2.3840   -7.5283 H   0  0  0  0  0  0
   14.5322    5.9015   -7.8036 C   0  0  0  0  0  0
   13.4216    4.9052   -7.5072 C   0  0  0  0  0  0
   13.9914    3.7141   -6.6981 C   0  0  0  0  0  0
   13.5413    2.4784   -6.9442 C   0  0  0  0  0  0
   15.4565    5.4516   -8.2034 H   0  0  0  0  0  0
   14.7449    6.3107   -6.8017 H   0  0  0  0  0  0
   14.2298    6.7305   -8.4653 H   0  0  0  0  0  0
   12.5679    5.3359   -6.9495 H   0  0  0  0  0  0
   13.0599    4.6307   -8.5168 H   0  0  0  0  0  0
   14.7394    4.0003   -5.9470 H   0  0  0  0  0  0
   14.0542    1.6160   -6.5032 H   0  0  0  0  0  0
   12.7628    2.2815   -7.6901 H   0  0  0  0  0  0
  1  2  1  0  0  0
  2  3  1  0  0  0
  3  4  2  0  0  0
  1  5  1  0  0  0
  1  6  1  0  0  0
  1  7  1  0  0  0
  2  8  1  0  0  0
  2  9  1  0  0  0
  3 10  1  0  0  0
  4 11  1  0  0  0
  4 12  1  0  0  0
 13 14  1  0  0  0
 14 15  1  0  0  0
 15 16  2  0  0  0
 13 17  1  0  0  0
 13 18  1  0  0  0
 13 19  1  0  0  0
 14 20  1  0  0  0
 14 21  1  0  0  0
 15 22  1  0  0  0
 16 23  1  0  0  0
 16 24  1  0  0  0
M  END
$$$$
