


 24 22  0  0  1  0            999 V2000
   -0.6103   -7.6285   -9.4631 C   0  0  0  0  0  0
   -0.9126   -8.4993  -10.7056 C   0  0  0  0  0  0
   -0.2433   -7.9550  -12.0433 C   0  0  0  0  0  0
    0.3865   -6.8052  -12.2675 C   0  0  0  0  0  0
    0.4558   -7.6687   -9.1829 H   0  0  0  0  0  0
   -1.2110   -7.9993   -8.6155 H   0  0  0  0  0  0
   -0.8842   -6.5775   -9.6552 H   0  0  0  0  0  0
   -0.4213   -9.4896  -10.6480 H   0  0  0  0  0  0
   -1.9843   -8.6676  -10.9259 H   0  0  0  0  0  0
   -0.3455   -8.6218  -12.9096 H   0  0  0  0  0  0
    0.8502   -6.5583  -13.2294 H   0  0  0  0  0  0
    0.4340   -6.0536  -11.4712 H   0  0  0  0  0  0
   -3.7999  -14.7875  -15.9579 C   0  0  0  0  0  0
   -3.6774  -13.3721  -15.2468 C   0  0  0  0  0  0
   -4.7329  -12.3834  -15.7056 C   0  0  0  0  0  0
   -5.8470  -12.5140  -16.4966 C   0  0  0  0  0  0
   -2.9178  -15.3820  -15.6663 H   0  0  0  0  0  0
   -3.7530  -14.5973  -17.0433 H   0  0  0  0  0  0
   -4.7076  -15.3760  -15.7427 H   0  0  0  0  0  0
   -3.6967  -13.4925  -14.1465 H   0  0  0  0  0  0
   -2.7101  -12.9067  -15.5175 H   0  0  0  0  0  0
   -4.6487  -11.4073  -15.2099 H   0  0  0  0  0  0
   -6.4427  -11.6213  -16.7188 H   0  0  0  0  0  0
   -6.1439  -13.4559  -16.9718 H   0  0  0  0  0  0
  1  2  1  0  0  0
  2  3  1  0  0  0
  3  4  2  0  0  0
  1  5  1  0  0  0
  1  6  1  0  0  0
  1  7  1  0  0  0
  2  8  1  0  0  0
  2  9  1  0  0  0
  3 10  1  0  0  0
  4 11  1  0  0  0
  4 12  1  0  0  0
 13 14  1  0  0  0
 14 15  1  0  0  0
 15 16  2  0  0  0
 13 17  1  0  0  0
 13 18  1  0  0  0
 13 19  1  0  0  0
 14 20  1  0  0  0
 14 21  1  0  0  0
 15 22  1  0  0  0
 16 23  1  0  0  0
 16 24  1  0  0  0
M  END
$$$$
