


 11  9  0  0  1  0            999 V2000
    1.3766    2.3513    2.3283 C   0  0  0  0  0  0
    2.1297    2.4131    1.0172 C   0  0  0  0  0  0
    1.7363    1.0092   -0.0207 Cl  0  0  0  0  0  0
    1.6379    3.2268    2.9462 H   0  0  0  0  0  0
    1.6388    1.4364    2.8857 H   0  0  0  0  0  0
    0.2877    2.3567    2.1530 H   0  0  0  0  0  0
    1.8784    3.3197    0.4338 H   0  0  0  0  0  0
    3.2267    2.4013    1.1651 H   0  0  0  0  0  0
   -1.2395    3.5293   -0.5382 O   0  0  0  0  0  0
   -0.7969    2.6730   -0.7359 H   0  0  0  0  0  0
   -2.0563    3.5188   -1.0868 H   0  0  0  0  0  0
  1  2  1  0  0  0
  2  3  1  0  0  0
  1  4  1  0  0  0
  1  5  1  0  0  0
  1  6  1  0  0  0
  2  7  1  0  0  0
  2  8  1  0  0  0
  9 10  1  0  0  0
  9 11  1  0  0  0
M  END
$$$$
