


 28 26  0  0  1  0            999 V2000
    4.7540    4.7513    3.5353 C   0  0  0  0  0  0
    3.7706    3.7428    2.9422 C   0  0  0  0  0  0
    2.3346    4.1718    3.1649 C   0  0  0  0  0  0
    1.4685    3.2032    2.5964 O   0  0  0  0  0  0
    0.1145    3.5581    2.7780 C   0  0  0  0  0  0
    4.6171    5.7407    3.0674 H   0  0  0  0  0  0
    5.7922    4.4213    3.3629 H   0  0  0  0  0  0
    4.5922    4.8507    4.6219 H   0  0  0  0  0  0
    3.9399    3.6358    1.8534 H   0  0  0  0  0  0
    3.9151    2.7476    3.4048 H   0  0  0  0  0  0
    2.1270    4.2698    4.2478 H   0  0  0  0  0  0
    2.1518    5.1581    2.6965 H   0  0  0  0  0  0
   -0.5048    2.7703    2.3170 H   0  0  0  0  0  0
   -0.1464    3.6300    3.8473 H   0  0  0  0  0  0
   -0.1216    4.5201    2.2928 H   0  0  0  0  0  0
    2.5961   -0.2635   -0.7652 C   0  0  0  0  0  0
    2.4035   -0.1835    0.6793 N   0  0  0  0  0  0
    2.1259    0.9409    1.3297 C   0  0  0  0  0  0
    1.9631    0.9328    2.6579 N   0  0  0  0  0  0
    2.0524    0.0566    3.1783 H   0  0  0  0  0  0
    1.7495    1.8022    3.1528 H   0  0  0  0  0  0
    2.0084    2.0865    0.6550 N   0  0  0  0  0  0
    2.8126   -1.3126   -1.0281 H   0  0  0  0  0  0
    3.4428    0.3631   -1.0924 H   0  0  0  0  0  0
    1.6912    0.0559   -1.3089 H   0  0  0  0  0  0
    2.4865   -1.0433    1.2273 H   0  0  0  0  0  0
    2.1322    2.0962   -0.3604 H   0  0  0  0  0  0
    1.7947    2.9545    1.1525 H   0  0  0  0  0  0
  1  2  1  0  0  0
  2  3  1  0  0  0
  3  4  1  0  0  0
  4  5  1  0  0  0
  1  6  1  0  0  0
  1  7  1  0  0  0
  1  8  1  0  0  0
  2  9  1  0  0  0
  2 10  1  0  0  0
  3 11  1  0  0  0
  3 12  1  0  0  0
  5 13  1  0  0  0
  5 14  1  0  0  0
  5 15  1  0  0  0
 16 17  1  0  0  0
 17 18  1  0  0  0
 18 19  2  0  0  0
 19 20  1  0  0  0
 19 21  1  0  0  0
 18 22  1  0  0  0
 16 23  1  0  0  0
 16 24  1  0  0  0
 16 25  1  0  0  0
 17 26  1  0  0  0
 22 27  1  0  0  0
 22 28  1  0  0  0
M  CHG  1  19   1
M  END
$$$$
