


 20 18  0  0  1  0            999 V2000
   -0.1498    0.8130    3.4589 C   0  0  0  0  0  0
    0.5744    1.9748    2.9406 C   0  0  0  0  0  0
    1.1762    2.9408    2.5093 C   0  0  0  0  0  0
    1.8997    4.1026    1.9903 C   0  0  0  0  0  0
   -0.0624   -0.0360    2.7602 H   0  0  0  0  0  0
   -1.2184    1.0539    3.5879 H   0  0  0  0  0  0
    0.2627    0.5088    4.4356 H   0  0  0  0  0  0
    2.4010    3.8492    1.0411 H   0  0  0  0  0  0
    1.2028    4.9379    1.8080 H   0  0  0  0  0  0
    2.6634    4.4332    2.7142 H   0  0  0  0  0  0
    0.8582    1.8969   -0.2445 C   0  0  0  0  0  0
    1.4926    0.8765    0.6722 C   0  0  0  0  0  0
    0.8656   -0.0731    1.1127 O   0  0  0  0  0  0
    2.9482    1.0998    1.0120 C   0  0  0  0  0  0
   -0.1978    1.6404   -0.4337 H   0  0  0  0  0  0
    1.3911    1.9281   -1.2097 H   0  0  0  0  0  0
    0.9001    2.8996    0.2131 H   0  0  0  0  0  0
    3.5606    1.0883    0.0947 H   0  0  0  0  0  0
    3.0797    2.0749    1.5106 H   0  0  0  0  0  0
    3.3116    0.3074    1.6877 H   0  0  0  0  0  0
  1  2  1  0  0  0
  2  3  3  0  0  0
  3  4  1  0  0  0
  1  5  1  0  0  0
  1  6  1  0  0  0
  1  7  1  0  0  0
  4  8  1  0  0  0
  4  9  1  0  0  0
  4 10  1  0  0  0
 11 12  1  0  0  0
 12 13  2  0  0  0
 12 14  1  0  0  0
 11 15  1  0  0  0
 11 16  1  0  0  0
 11 17  1  0  0  0
 14 18  1  0  0  0
 14 19  1  0  0  0
 14 20  1  0  0  0
M  END
$$$$
