


 22 22  0  0  1  0            999 V2000
    0.7721    2.7313   -2.8635 C   0  0  0  0  0  0
    0.3691    3.8488   -3.6072 C   0  0  0  0  0  0
    1.1628    4.3507   -4.6641 C   0  0  0  0  0  0
    2.3634    3.7277   -4.9069 C   0  0  0  0  0  0
    2.8040    2.7373   -4.1723 N   0  0  0  0  0  0
    2.0473    2.2357   -3.2115 C   0  0  0  0  0  0
   -0.0033    2.3246   -2.2008 H   0  0  0  0  0  0
   -0.5818    4.2729   -3.2586 H   0  0  0  0  0  0
    1.0325    5.3682   -5.0556 H   0  0  0  0  0  0
    3.0828    4.2778   -5.5277 H   0  0  0  0  0  0
    2.3472    1.2427   -2.8515 H   0  0  0  0  0  0
    6.0025   -3.3758    2.3173 C   0  0  0  0  0  0
    4.9958   -3.4546    1.3594 C   0  0  0  0  0  0
    4.0378   -4.4896    1.4980 C   0  0  0  0  0  0
    4.0910   -5.3254    2.5616 C   0  0  0  0  0  0
    5.0037   -5.2554    3.5503 N   0  0  0  0  0  0
    6.0126   -4.3313    3.4130 C   0  0  0  0  0  0
    6.7941   -2.6394    2.1257 H   0  0  0  0  0  0
    4.9657   -2.8687    0.4313 H   0  0  0  0  0  0
    3.2776   -4.5390    0.7074 H   0  0  0  0  0  0
    3.3319   -6.1183    2.5915 H   0  0  0  0  0  0
    6.7713   -4.4352    4.1999 H   0  0  0  0  0  0
  1  2  1  0  0  0
  2  3  2  0  0  0
  3  4  1  0  0  0
  4  5  2  0  0  0
  5  6  1  0  0  0
  1  6  2  0  0  0
  1  7  1  0  0  0
  2  8  1  0  0  0
  3  9  1  0  0  0
  4 10  1  0  0  0
  6 11  1  0  0  0
 12 13  1  0  0  0
 13 14  2  0  0  0
 14 15  1  0  0  0
 15 16  2  0  0  0
 16 17  1  0  0  0
 12 17  2  0  0  0
 12 18  1  0  0  0
 13 19  1  0  0  0
 14 20  1  0  0  0
 15 21  1  0  0  0
 17 22  1  0  0  0
M  END
$$$$
