


 22 22  0  0  1  0            999 V2000
    3.0970    5.4850    1.6646 C   0  0  0  0  0  0
    3.1317    4.9214    2.9414 C   0  0  0  0  0  0
    3.4229    5.7696    4.0442 C   0  0  0  0  0  0
    3.5260    7.1535    3.8821 C   0  0  0  0  0  0
    3.3690    7.6939    2.6861 N   0  0  0  0  0  0
    3.1595    6.8751    1.6253 C   0  0  0  0  0  0
    2.8853    4.8495    0.7946 H   0  0  0  0  0  0
    2.9049    3.8587    3.0990 H   0  0  0  0  0  0
    3.4660    5.3791    5.0695 H   0  0  0  0  0  0
    3.8795    7.8412    4.6617 H   0  0  0  0  0  0
    2.9912    7.3833    0.6666 H   0  0  0  0  0  0
    5.3436   -0.4084   -0.4838 C   0  0  0  0  0  0
    5.1462    0.9237   -0.8301 C   0  0  0  0  0  0
    5.7225    1.3398   -2.0765 C   0  0  0  0  0  0
    6.5447    0.4529   -2.7626 C   0  0  0  0  0  0
    6.8035   -0.8379   -2.3747 N   0  0  0  0  0  0
    6.2226   -1.2204   -1.2502 C   0  0  0  0  0  0
    4.8597   -0.8576    0.3934 H   0  0  0  0  0  0
    4.4112    1.5233   -0.2771 H   0  0  0  0  0  0
    5.3906    2.2996   -2.4939 H   0  0  0  0  0  0
    6.9789    0.6292   -3.7556 H   0  0  0  0  0  0
    6.4210   -2.2480   -0.9183 H   0  0  0  0  0  0
  1  2  1  0  0  0
  2  3  2  0  0  0
  3  4  1  0  0  0
  4  5  2  0  0  0
  5  6  1  0  0  0
  1  6  2  0  0  0
  1  7  1  0  0  0
  2  8  1  0  0  0
  3  9  1  0  0  0
  4 10  1  0  0  0
  6 11  1  0  0  0
 12 13  1  0  0  0
 13 14  2  0  0  0
 14 15  1  0  0  0
 15 16  2  0  0  0
 16 17  1  0  0  0
 12 17  2  0  0  0
 12 18  1  0  0  0
 13 19  1  0  0  0
 14 20  1  0  0  0
 15 21  1  0  0  0
 17 22  1  0  0  0
M  END
$$$$
