


 26 24  0  0  1  0            999 V2000
    0.0000    0.0000    0.0000 C   0  0  0  0  0  0
    0.4747   -0.4663   -1.3181 N   0  0  0  0  0  0
    1.8015    0.2023   -1.4180 C   0  0  0  0  0  0
    2.3622   -0.2493   -2.7765 C   0  0  0  0  0  0
   -1.0672   -0.2620    0.0957 H   0  0  0  0  0  0
    0.1016    1.0956    0.0776 H   0  0  0  0  0  0
    0.5524   -0.4645    0.8341 H   0  0  0  0  0  0
   -0.1891   -0.2409   -2.0700 H   0  0  0  0  0  0
    1.5796    1.2866   -1.3966 H   0  0  0  0  0  0
    2.4239   -0.0314   -0.5329 H   0  0  0  0  0  0
    3.2880    0.2828   -3.0526 H   0  0  0  0  0  0
    1.5722    0.0222   -3.4968 H   0  0  0  0  0  0
    2.5455   -1.3346   -2.8480 H   0  0  0  0  0  0
   -1.4991    1.9314   -5.4197 C   0  0  0  0  0  0
   -1.9544    0.5269   -5.1641 N   0  0  0  0  0  0
   -2.5348    0.5528   -3.8120 C   0  0  0  0  0  0
   -1.4042    0.0647   -2.7901 C   0  0  0  0  0  0
   -0.6623    2.2596   -4.7804 H   0  0  0  0  0  0
   -2.3022    2.6854   -5.3625 H   0  0  0  0  0  0
   -1.1438    1.8743   -6.4624 H   0  0  0  0  0  0
   -2.6511    0.3430   -5.8972 H   0  0  0  0  0  0
   -2.9775    1.5064   -3.4655 H   0  0  0  0  0  0
   -3.3049   -0.2350   -3.7031 H   0  0  0  0  0  0
   -1.8261    0.0128   -1.7723 H   0  0  0  0  0  0
   -0.5128    0.7139   -2.7687 H   0  0  0  0  0  0
   -1.0940   -0.9491   -3.0944 H   0  0  0  0  0  0
  1  2  1  0  0  0
  2  3  1  0  0  0
  3  4  1  0  0  0
  1  5  1  0  0  0
  1  6  1  0  0  0
  1  7  1  0  0  0
  2  8  1  0  0  0
  3  9  1  0  0  0
  3 10  1  0  0  0
  4 11  1  0  0  0
  4 12  1  0  0  0
  4 13  1  0  0  0
 14 15  1  0  0  0
 15 16  1  0  0  0
 16 17  1  0  0  0
 14 18  1  0  0  0
 14 19  1  0  0  0
 14 20  1  0  0  0
 15 21  1  0  0  0
 16 22  1  0  0  0
 16 23  1  0  0  0
 17 24  1  0  0  0
 17 25  1  0  0  0
 17 26  1  0  0  0
M  END
$$$$
