


 26 24  0  0  1  0            999 V2000
    0.0000    0.0000    0.0000 C   0  0  0  0  0  0
    0.4747   -0.4663   -1.3181 N   0  0  0  0  0  0
    1.8015    0.2023   -1.4180 C   0  0  0  0  0  0
    2.3622   -0.2493   -2.7765 C   0  0  0  0  0  0
   -1.0672   -0.2620    0.0957 H   0  0  0  0  0  0
    0.1016    1.0956    0.0776 H   0  0  0  0  0  0
    0.5524   -0.4645    0.8341 H   0  0  0  0  0  0
   -0.1891   -0.2409   -2.0700 H   0  0  0  0  0  0
    1.5796    1.2866   -1.3966 H   0  0  0  0  0  0
    2.4239   -0.0314   -0.5329 H   0  0  0  0  0  0
    3.2880    0.2828   -3.0526 H   0  0  0  0  0  0
    1.5722    0.0222   -3.4968 H   0  0  0  0  0  0
    2.5455   -1.3346   -2.8480 H   0  0  0  0  0  0
   -2.5225    2.1402   -6.1937 C   0  0  0  0  0  0
   -2.9778    0.7357   -5.9380 N   0  0  0  0  0  0
   -3.5582    0.7616   -4.5859 C   0  0  0  0  0  0
   -2.4277    0.2735   -3.5640 C   0  0  0  0  0  0
   -1.6857    2.4684   -5.5544 H   0  0  0  0  0  0
   -3.3256    2.8942   -6.1365 H   0  0  0  0  0  0
   -2.1672    2.0831   -7.2363 H   0  0  0  0  0  0
   -3.6745    0.5518   -6.6712 H   0  0  0  0  0  0
   -4.0010    1.7152   -4.2394 H   0  0  0  0  0  0
   -4.3283   -0.0262   -4.4770 H   0  0  0  0  0  0
   -2.8496    0.2216   -2.5462 H   0  0  0  0  0  0
   -1.5362    0.9227   -3.5427 H   0  0  0  0  0  0
   -2.1174   -0.7403   -3.8683 H   0  0  0  0  0  0
  1  2  1  0  0  0
  2  3  1  0  0  0
  3  4  1  0  0  0
  1  5  1  0  0  0
  1  6  1  0  0  0
  1  7  1  0  0  0
  2  8  1  0  0  0
  3  9  1  0  0  0
  3 10  1  0  0  0
  4 11  1  0  0  0
  4 12  1  0  0  0
  4 13  1  0  0  0
 14 15  1  0  0  0
 15 16  1  0  0  0
 16 17  1  0  0  0
 14 18  1  0  0  0
 14 19  1  0  0  0
 14 20  1  0  0  0
 15 21  1  0  0  0
 16 22  1  0  0  0
 16 23  1  0  0  0
 17 24  1  0  0  0
 17 25  1  0  0  0
 17 26  1  0  0  0
M  END
$$$$
