


 26 24  0  0  1  0            999 V2000
   -5.5382   -2.5921   14.1538 C   0  0  0  0  0  0
   -5.1996   -1.7232   15.3145 N   0  0  0  0  0  0
   -4.8535   -2.5565   16.4622 C   0  0  0  0  0  0
   -3.4574   -3.3445   16.2895 C   0  0  0  0  0  0
   -5.9484   -2.0109   13.3110 H   0  0  0  0  0  0
   -6.2511   -3.3945   14.4079 H   0  0  0  0  0  0
   -4.5887   -3.0535   13.8340 H   0  0  0  0  0  0
   -6.0118   -1.1043   15.4328 H   0  0  0  0  0  0
   -4.8364   -1.9207   17.3682 H   0  0  0  0  0  0
   -5.6474   -3.3158   16.5987 H   0  0  0  0  0  0
   -3.1771   -4.0296   17.1072 H   0  0  0  0  0  0
   -2.7153   -2.5298   16.2430 H   0  0  0  0  0  0
   -3.4281   -3.9017   15.3380 H   0  0  0  0  0  0
   -6.1531   -5.3524   16.0712 C   0  0  0  0  0  0
   -6.0384   -6.6640   16.7372 N   0  0  0  0  0  0
   -6.7455   -7.7267   16.0776 C   0  0  0  0  0  0
   -6.1450   -9.1201   16.4380 C   0  0  0  0  0  0
   -5.7498   -5.2538   15.0493 H   0  0  0  0  0  0
   -5.6803   -4.5887   16.7113 H   0  0  0  0  0  0
   -7.2392   -5.1624   16.0406 H   0  0  0  0  0  0
   -5.0210   -6.8021   16.7877 H   0  0  0  0  0  0
   -7.8315   -7.7712   16.2879 H   0  0  0  0  0  0
   -6.6201   -7.4948   15.0025 H   0  0  0  0  0  0
   -5.0581   -9.0591   16.2604 H   0  0  0  0  0  0
   -6.5620   -9.9159   15.7979 H   0  0  0  0  0  0
   -6.3143   -9.3926   17.4933 H   0  0  0  0  0  0
  1  2  1  0  0  0
  2  3  1  0  0  0
  3  4  1  0  0  0
  1  5  1  0  0  0
  1  6  1  0  0  0
  1  7  1  0  0  0
  2  8  1  0  0  0
  3  9  1  0  0  0
  3 10  1  0  0  0
  4 11  1  0  0  0
  4 12  1  0  0  0
  4 13  1  0  0  0
 14 15  1  0  0  0
 15 16  1  0  0  0
 16 17  1  0  0  0
 14 18  1  0  0  0
 14 19  1  0  0  0
 14 20  1  0  0  0
 15 21  1  0  0  0
 16 22  1  0  0  0
 16 23  1  0  0  0
 17 24  1  0  0  0
 17 25  1  0  0  0
 17 26  1  0  0  0
M  END
$$$$
