


 26 24  0  0  1  0            999 V2000
   -2.2714    1.6746   -3.5966 C   0  0  0  0  0  0
   -1.1029    0.8358   -3.1984 N   0  0  0  0  0  0
   -0.9407   -0.0830   -4.3107 C   0  0  0  0  0  0
    0.3210   -0.9158   -4.1895 C   0  0  0  0  0  0
   -3.1727    1.0990   -3.8666 H   0  0  0  0  0  0
   -2.0240    2.3527   -4.4306 H   0  0  0  0  0  0
   -2.4963    2.2822   -2.7039 H   0  0  0  0  0  0
   -1.3564    0.3773   -2.3139 H   0  0  0  0  0  0
   -1.7803   -0.7742   -4.5178 H   0  0  0  0  0  0
   -0.8006    0.5539   -5.2052 H   0  0  0  0  0  0
    0.7092   -1.0909   -5.2070 H   0  0  0  0  0  0
    0.0215   -1.8847   -3.7557 H   0  0  0  0  0  0
    1.1299   -0.4892   -3.5728 H   0  0  0  0  0  0
    4.5475   -0.4720   -0.0725 C   0  0  0  0  0  0
    3.3891   -1.3359   -0.2596 N   0  0  0  0  0  0
    3.4360   -1.9662   -1.5374 C   0  0  0  0  0  0
    2.2665   -2.9996   -1.6317 C   0  0  0  0  0  0
    4.4057    0.2060    0.7859 H   0  0  0  0  0  0
    4.6124    0.1335   -0.9921 H   0  0  0  0  0  0
    5.4993   -1.0134    0.0603 H   0  0  0  0  0  0
    3.6217   -1.9456    0.5347 H   0  0  0  0  0  0
    3.4486   -1.1796   -2.3161 H   0  0  0  0  0  0
    4.3863   -2.5289   -1.6119 H   0  0  0  0  0  0
    2.4851   -3.6041   -2.5280 H   0  0  0  0  0  0
    1.3058   -2.4794   -1.7839 H   0  0  0  0  0  0
    2.1669   -3.6764   -0.7665 H   0  0  0  0  0  0
  1  2  1  0  0  0
  2  3  1  0  0  0
  3  4  1  0  0  0
  1  5  1  0  0  0
  1  6  1  0  0  0
  1  7  1  0  0  0
  2  8  1  0  0  0
  3  9  1  0  0  0
  3 10  1  0  0  0
  4 11  1  0  0  0
  4 12  1  0  0  0
  4 13  1  0  0  0
 14 15  1  0  0  0
 15 16  1  0  0  0
 16 17  1  0  0  0
 14 18  1  0  0  0
 14 19  1  0  0  0
 14 20  1  0  0  0
 15 21  1  0  0  0
 16 22  1  0  0  0
 16 23  1  0  0  0
 17 24  1  0  0  0
 17 25  1  0  0  0
 17 26  1  0  0  0
M  END
$$$$
