


 18 16  0  0  1  0            999 V2000
    4.2253    0.7815   -1.1436 C   0  0  0  0  0  0
    3.8170    2.1216   -0.5871 C   0  0  0  0  0  0
    2.6016    2.5191   -1.1487 F   0  0  0  0  0  0
    3.4651    0.0168   -0.9116 H   0  0  0  0  0  0
    5.1852    0.4697   -0.6988 H   0  0  0  0  0  0
    4.3463    0.8364   -2.2386 H   0  0  0  0  0  0
    3.6805    2.0926    0.5111 H   0  0  0  0  0  0
    4.5599    2.9105   -0.8132 H   0  0  0  0  0  0
    1.2339    3.9803    2.8712 C   0  0  0  0  0  0
    1.6824    2.5798    3.9196 S   0  0  0  0  0  0
    0.1128    1.3107    3.6355 S   0  0  0  0  0  0
    0.5969    0.4379    2.1303 C   0  0  0  0  0  0
    2.0178    4.7470    2.9912 H   0  0  0  0  0  0
    0.2665    4.4160    3.1728 H   0  0  0  0  0  0
    1.1765    3.6995    1.8061 H   0  0  0  0  0  0
    0.6812    1.1175    1.2656 H   0  0  0  0  0  0
    1.5582   -0.0870    2.2602 H   0  0  0  0  0  0
   -0.1857   -0.3092    1.9156 H   0  0  0  0  0  0
  1  2  1  0  0  0
  2  3  1  0  0  0
  1  4  1  0  0  0
  1  5  1  0  0  0
  1  6  1  0  0  0
  2  7  1  0  0  0
  2  8  1  0  0  0
  9 10  1  0  0  0
 10 11  1  0  0  0
 11 12  1  0  0  0
  9 13  1  0  0  0
  9 14  1  0  0  0
  9 15  1  0  0  0
 12 16  1  0  0  0
 12 17  1  0  0  0
 12 18  1  0  0  0
M  END
$$$$
