


 18 16  0  0  1  0            999 V2000
    3.8608    0.8118   -0.4321 C   0  0  0  0  0  0
    3.4526    2.1519    0.1245 C   0  0  0  0  0  0
    2.2372    2.5494   -0.4371 F   0  0  0  0  0  0
    3.1006    0.0470   -0.2001 H   0  0  0  0  0  0
    4.8208    0.5000    0.0128 H   0  0  0  0  0  0
    3.9819    0.8666   -1.5271 H   0  0  0  0  0  0
    3.3161    2.1229    1.2226 H   0  0  0  0  0  0
    4.1955    2.9408   -0.1016 H   0  0  0  0  0  0
    1.2339    3.9803    2.8712 C   0  0  0  0  0  0
    1.6824    2.5798    3.9196 S   0  0  0  0  0  0
    0.1128    1.3107    3.6355 S   0  0  0  0  0  0
    0.5969    0.4379    2.1303 C   0  0  0  0  0  0
    2.0178    4.7470    2.9912 H   0  0  0  0  0  0
    0.2665    4.4160    3.1728 H   0  0  0  0  0  0
    1.1765    3.6995    1.8061 H   0  0  0  0  0  0
    0.6812    1.1175    1.2656 H   0  0  0  0  0  0
    1.5582   -0.0870    2.2602 H   0  0  0  0  0  0
   -0.1857   -0.3092    1.9156 H   0  0  0  0  0  0
  1  2  1  0  0  0
  2  3  1  0  0  0
  1  4  1  0  0  0
  1  5  1  0  0  0
  1  6  1  0  0  0
  2  7  1  0  0  0
  2  8  1  0  0  0
  9 10  1  0  0  0
 10 11  1  0  0  0
 11 12  1  0  0  0
  9 13  1  0  0  0
  9 14  1  0  0  0
  9 15  1  0  0  0
 12 16  1  0  0  0
 12 17  1  0  0  0
 12 18  1  0  0  0
M  END
$$$$
