


 17 15  0  0  1  0            999 V2000
    1.0158   -0.2911   -1.4474 Br  0  0  0  0  0  0
    0.3473   -0.1364    0.3625 C   0  0  0  0  0  0
    1.4997    0.1203    1.2963 C   0  0  0  0  0  0
    0.8312    0.2749    3.1064 Br  0  0  0  0  0  0
   -0.3951    0.6847    0.3732 H   0  0  0  0  0  0
   -0.1870   -1.0763    0.6005 H   0  0  0  0  0  0
    2.2421   -0.7008    1.2857 H   0  0  0  0  0  0
    2.0340    1.0602    1.0584 H   0  0  0  0  0  0
    2.3790    3.3460    2.7615 C   0  0  0  0  0  0
    0.8805    3.5286    2.5660 C   0  0  0  0  0  0
    0.2869    2.9793    0.9361 S   0  0  0  0  0  0
    2.6591    2.2887    2.6197 H   0  0  0  0  0  0
    2.6702    3.6537    3.7799 H   0  0  0  0  0  0
    2.9390    3.9588    2.0352 H   0  0  0  0  0  0
    0.3134    2.9057    3.2843 H   0  0  0  0  0  0
    0.5803    4.5824    2.7242 H   0  0  0  0  0  0
    1.0285    3.8422    0.2095 H   0  0  0  0  0  0
  1  2  1  0  0  0
  2  3  1  0  0  0
  3  4  1  0  0  0
  2  5  1  0  0  0
  2  6  1  0  0  0
  3  7  1  0  0  0
  3  8  1  0  0  0
  9 10  1  0  0  0
 10 11  1  0  0  0
  9 12  1  0  0  0
  9 13  1  0  0  0
  9 14  1  0  0  0
 10 15  1  0  0  0
 10 16  1  0  0  0
 11 17  1  0  0  0
M  END
$$$$
