


 24 22  0  0  1  0            999 V2000
    0.0000    0.0000    0.0000 C   0  0  0  0  0  0
   -0.6143    0.7692    0.9545 N   0  0  0  0  0  0
   -1.5818    1.6236    0.6828 C   0  0  0  0  0  0
   -2.0739    1.7220   -0.4381 O   0  0  0  0  0  0
   -2.1121    2.5299    1.7654 C   0  0  0  0  0  0
   -0.5385   -0.9626   -0.0028 H   0  0  0  0  0  0
    1.0121   -0.1643    0.4064 H   0  0  0  0  0  0
    0.0919    0.3547   -1.0403 H   0  0  0  0  0  0
   -0.0791    0.8230    1.8247 H   0  0  0  0  0  0
   -2.8139    3.2982    1.3995 H   0  0  0  0  0  0
   -1.2420    3.0350    2.2176 H   0  0  0  0  0  0
   -2.6172    1.9344    2.5444 H   0  0  0  0  0  0
    2.8218    2.2684   -0.6549 C   0  0  0  0  0  0
    4.1479    1.7500   -1.1282 N   0  0  0  0  0  0
    4.4228    0.5156   -1.5133 C   0  0  0  0  0  0
    3.5651   -0.3303   -1.5124 O   0  0  0  0  0  0
    5.7722    0.2098   -2.0045 C   0  0  0  0  0  0
    2.0199    2.2464   -1.4120 H   0  0  0  0  0  0
    2.9428    3.3059   -0.3006 H   0  0  0  0  0  0
    2.5178    1.6385    0.1980 H   0  0  0  0  0  0
    4.8800    2.4621   -1.1870 H   0  0  0  0  0  0
    6.3970    0.2218   -1.0956 H   0  0  0  0  0  0
    6.1549    0.9715   -2.7046 H   0  0  0  0  0  0
    5.8616   -0.7814   -2.4799 H   0  0  0  0  0  0
  1  2  1  0  0  0
  2  3  1  0  0  0
  3  4  2  0  0  0
  3  5  1  0  0  0
  1  6  1  0  0  0
  1  7  1  0  0  0
  1  8  1  0  0  0
  2  9  1  0  0  0
  5 10  1  0  0  0
  5 11  1  0  0  0
  5 12  1  0  0  0
 13 14  1  0  0  0
 14 15  1  0  0  0
 15 16  2  0  0  0
 15 17  1  0  0  0
 13 18  1  0  0  0
 13 19  1  0  0  0
 13 20  1  0  0  0
 14 21  1  0  0  0
 17 22  1  0  0  0
 17 23  1  0  0  0
 17 24  1  0  0  0
M  END
$$$$
