


 24 22  0  0  1  0            999 V2000
    0.9737   -0.6876    0.1371 C   0  0  0  0  0  0
    0.6437    0.4789   -0.6581 N   0  0  0  0  0  0
    1.5941    1.4019   -0.9742 C   0  0  0  0  0  0
    2.7568    1.2806   -0.5999 O   0  0  0  0  0  0
    1.1073    2.5672   -1.8093 C   0  0  0  0  0  0
    0.0655   -1.2982    0.2740 H   0  0  0  0  0  0
    1.3532   -0.3939    1.1303 H   0  0  0  0  0  0
    1.7394   -1.3034   -0.3641 H   0  0  0  0  0  0
   -0.3146    0.6156   -0.9890 H   0  0  0  0  0  0
    0.3188    3.1297   -1.2816 H   0  0  0  0  0  0
    1.9539    3.2469   -2.0041 H   0  0  0  0  0  0
    0.7050    2.2202   -2.7759 H   0  0  0  0  0  0
    4.9926    0.5865    5.7981 C   0  0  0  0  0  0
    3.9576    1.4053    5.1975 N   0  0  0  0  0  0
    3.0930    2.1186    5.9712 C   0  0  0  0  0  0
    3.1578    2.0945    7.1967 O   0  0  0  0  0  0
    2.0650    2.9281    5.2093 C   0  0  0  0  0  0
    5.5753    0.0995    4.9982 H   0  0  0  0  0  0
    4.5541   -0.1958    6.4402 H   0  0  0  0  0  0
    5.6768    1.1998    6.4082 H   0  0  0  0  0  0
    3.8712    1.4516    4.1792 H   0  0  0  0  0  0
    1.4295    2.2754    4.5875 H   0  0  0  0  0  0
    1.4227    3.4613    5.9302 H   0  0  0  0  0  0
    2.5522    3.6710    4.5556 H   0  0  0  0  0  0
  1  2  1  0  0  0
  2  3  1  0  0  0
  3  4  2  0  0  0
  3  5  1  0  0  0
  1  6  1  0  0  0
  1  7  1  0  0  0
  1  8  1  0  0  0
  2  9  1  0  0  0
  5 10  1  0  0  0
  5 11  1  0  0  0
  5 12  1  0  0  0
 13 14  1  0  0  0
 14 15  1  0  0  0
 15 16  2  0  0  0
 15 17  1  0  0  0
 13 18  1  0  0  0
 13 19  1  0  0  0
 13 20  1  0  0  0
 14 21  1  0  0  0
 17 22  1  0  0  0
 17 23  1  0  0  0
 17 24  1  0  0  0
M  END
$$$$
