


 24 22  0  0  1  0            999 V2000
    0.9398   -3.1057    2.9285 C   0  0  0  0  0  0
    0.0498   -3.1634    4.0215 N   0  0  0  0  0  0
    0.3353   -2.6003    5.1983 C   0  0  0  0  0  0
    1.4845   -2.3125    5.4772 O   0  0  0  0  0  0
   -0.8007   -2.4643    6.2677 C   0  0  0  0  0  0
    1.9506   -3.3476    3.2978 H   0  0  0  0  0  0
    0.9735   -2.1226    2.4294 H   0  0  0  0  0  0
    0.6446   -3.8669    2.1869 H   0  0  0  0  0  0
   -0.8744   -3.5638    3.8422 H   0  0  0  0  0  0
   -1.5575   -1.7809    5.8473 H   0  0  0  0  0  0
   -0.3319   -1.9770    7.1391 H   0  0  0  0  0  0
   -1.3070   -3.3830    6.6086 H   0  0  0  0  0  0
    5.1024    2.9456   -8.9193 C   0  0  0  0  0  0
    4.1707    1.8484   -8.6803 N   0  0  0  0  0  0
    2.8960    2.0365   -8.4193 C   0  0  0  0  0  0
    2.2811    3.1427   -8.5640 O   0  0  0  0  0  0
    2.1226    0.8687   -7.8841 C   0  0  0  0  0  0
    6.0345    2.6275   -9.4158 H   0  0  0  0  0  0
    5.3359    3.2244   -7.8780 H   0  0  0  0  0  0
    4.7109    3.8344   -9.4422 H   0  0  0  0  0  0
    4.4597    0.9222   -8.3559 H   0  0  0  0  0  0
    2.4213    0.7190   -6.8329 H   0  0  0  0  0  0
    2.2747   -0.0769   -8.4311 H   0  0  0  0  0  0
    1.0496    1.1227   -7.9121 H   0  0  0  0  0  0
  1  2  1  0  0  0
  2  3  1  0  0  0
  3  4  2  0  0  0
  3  5  1  0  0  0
  1  6  1  0  0  0
  1  7  1  0  0  0
  1  8  1  0  0  0
  2  9  1  0  0  0
  5 10  1  0  0  0
  5 11  1  0  0  0
  5 12  1  0  0  0
 13 14  1  0  0  0
 14 15  1  0  0  0
 15 16  2  0  0  0
 15 17  1  0  0  0
 13 18  1  0  0  0
 13 19  1  0  0  0
 13 20  1  0  0  0
 14 21  1  0  0  0
 17 22  1  0  0  0
 17 23  1  0  0  0
 17 24  1  0  0  0
M  END
$$$$
