


 30 28  0  0  1  0            999 V2000
   16.3500   -7.8349    2.2868 C   0  0  0  0  0  0
   15.0701   -6.9996    2.4971 C   0  0  0  0  0  0
   13.8832   -8.0150    2.4225 C   0  0  0  0  0  0
   12.7706   -7.8502    1.6000 C   0  0  0  0  0  0
   14.0400   -9.3131    3.2426 C   0  0  0  0  0  0
   17.1355   -7.0611    2.2554 H   0  0  0  0  0  0
   16.3785   -8.4037    1.3423 H   0  0  0  0  0  0
   16.5686   -8.5245    3.1195 H   0  0  0  0  0  0
   15.1558   -6.5870    3.5207 H   0  0  0  0  0  0
   14.9756   -6.1470    1.7974 H   0  0  0  0  0  0
   11.9103   -8.5194    1.7147 H   0  0  0  0  0  0
   12.6754   -7.0136    0.8984 H   0  0  0  0  0  0
   14.4613   -9.0612    4.2304 H   0  0  0  0  0  0
   14.6566  -10.1074    2.7893 H   0  0  0  0  0  0
   13.0169   -9.7000    3.3849 H   0  0  0  0  0  0
   13.8559  -12.9985    3.1917 C   0  0  0  0  0  0
   12.3377  -12.7650    3.2952 C   0  0  0  0  0  0
   11.8262  -11.3398    2.9781 C   0  0  0  0  0  0
   11.5446  -10.9097    1.7300 C   0  0  0  0  0  0
   11.5737  -10.5008    4.1538 C   0  0  0  0  0  0
   14.2975  -12.0949    3.6446 H   0  0  0  0  0  0
   14.1704  -13.0522    2.1358 H   0  0  0  0  0  0
   14.2466  -13.8840    3.7206 H   0  0  0  0  0  0
   11.8531  -13.3479    2.4885 H   0  0  0  0  0  0
   11.8766  -13.0700    4.2543 H   0  0  0  0  0  0
   11.0789   -9.9206    1.6523 H   0  0  0  0  0  0
   11.6882  -11.4793    0.8047 H   0  0  0  0  0  0
   12.5308  -10.2824    4.6565 H   0  0  0  0  0  0
   10.9050  -11.0029    4.8731 H   0  0  0  0  0  0
   11.1105   -9.5472    3.8494 H   0  0  0  0  0  0
  1  2  1  0  0  0
  2  3  1  0  0  0
  3  4  2  0  0  0
  3  5  1  0  0  0
  1  6  1  0  0  0
  1  7  1  0  0  0
  1  8  1  0  0  0
  2  9  1  0  0  0
  2 10  1  0  0  0
  4 11  1  0  0  0
  4 12  1  0  0  0
  5 13  1  0  0  0
  5 14  1  0  0  0
  5 15  1  0  0  0
 16 17  1  0  0  0
 17 18  1  0  0  0
 18 19  2  0  0  0
 18 20  1  0  0  0
 16 21  1  0  0  0
 16 22  1  0  0  0
 16 23  1  0  0  0
 17 24  1  0  0  0
 17 25  1  0  0  0
 19 26  1  0  0  0
 19 27  1  0  0  0
 20 28  1  0  0  0
 20 29  1  0  0  0
 20 30  1  0  0  0
M  END
$$$$
