


 30 28  0  0  1  0            999 V2000
    3.4488    3.5162  -11.0738 C   0  0  0  0  0  0
    2.4426    2.9765  -10.1095 C   0  0  0  0  0  0
    2.3061    1.4722  -10.0519 C   0  0  0  0  0  0
    2.9313    0.6622  -10.8791 C   0  0  0  0  0  0
    1.1959    0.9676   -9.0625 C   0  0  0  0  0  0
    4.4574    3.1332  -10.8442 H   0  0  0  0  0  0
    3.4652    4.6166  -11.0005 H   0  0  0  0  0  0
    3.1936    3.2363  -12.1097 H   0  0  0  0  0  0
    2.6697    3.3905   -9.1083 H   0  0  0  0  0  0
    1.4218    3.3042  -10.3855 H   0  0  0  0  0  0
    2.6874   -0.4059  -10.9085 H   0  0  0  0  0  0
    3.5582    1.0639  -11.6834 H   0  0  0  0  0  0
    0.8423   -0.0335   -9.3615 H   0  0  0  0  0  0
    0.3552    1.6768   -9.1453 H   0  0  0  0  0  0
    1.5190    0.9264   -8.0087 H   0  0  0  0  0  0
    6.5721    0.1405   -4.2764 C   0  0  0  0  0  0
    7.4338    0.1429   -3.0224 C   0  0  0  0  0  0
    8.4822    1.2520   -3.0044 C   0  0  0  0  0  0
    8.1212    2.3184   -2.3271 C   0  0  0  0  0  0
    9.7099    1.0283   -3.8591 C   0  0  0  0  0  0
    6.2151   -0.8752   -4.5159 H   0  0  0  0  0  0
    7.0665    0.5592   -5.1691 H   0  0  0  0  0  0
    5.7010    0.7703   -4.0289 H   0  0  0  0  0  0
    6.7422    0.1648   -2.1583 H   0  0  0  0  0  0
    8.0139   -0.7983   -2.9654 H   0  0  0  0  0  0
    8.8039    3.1659   -2.1975 H   0  0  0  0  0  0
    7.1092    2.4120   -1.9167 H   0  0  0  0  0  0
   10.3678    1.9062   -3.9738 H   0  0  0  0  0  0
    9.2304    0.8187   -4.8301 H   0  0  0  0  0  0
   10.3284    0.1596   -3.5774 H   0  0  0  0  0  0
  1  2  1  0  0  0
  2  3  1  0  0  0
  3  4  2  0  0  0
  3  5  1  0  0  0
  1  6  1  0  0  0
  1  7  1  0  0  0
  1  8  1  0  0  0
  2  9  1  0  0  0
  2 10  1  0  0  0
  4 11  1  0  0  0
  4 12  1  0  0  0
  5 13  1  0  0  0
  5 14  1  0  0  0
  5 15  1  0  0  0
 16 17  1  0  0  0
 17 18  1  0  0  0
 18 19  2  0  0  0
 18 20  1  0  0  0
 16 21  1  0  0  0
 16 22  1  0  0  0
 16 23  1  0  0  0
 17 24  1  0  0  0
 17 25  1  0  0  0
 19 26  1  0  0  0
 19 27  1  0  0  0
 20 28  1  0  0  0
 20 29  1  0  0  0
 20 30  1  0  0  0
M  END
$$$$
