


 30 28  0  0  1  0            999 V2000
    6.9317    8.9986    7.3424 C   0  0  0  0  0  0
    5.5483    8.7336    7.9365 C   0  0  0  0  0  0
    4.7751    9.9919    8.3851 C   0  0  0  0  0  0
    3.7709   10.5068    7.6390 C   0  0  0  0  0  0
    5.2085   10.5386    9.7005 C   0  0  0  0  0  0
    7.4833    8.0469    7.4239 H   0  0  0  0  0  0
    7.4599    9.7633    7.9364 H   0  0  0  0  0  0
    6.9286    9.3141    6.2855 H   0  0  0  0  0  0
    4.8549    8.0812    7.3716 H   0  0  0  0  0  0
    5.8924    8.1697    8.8248 H   0  0  0  0  0  0
    3.0454   11.2532    7.9822 H   0  0  0  0  0  0
    3.6228   10.0724    6.6437 H   0  0  0  0  0  0
    5.6317    9.7614   10.3589 H   0  0  0  0  0  0
    4.3632   11.0190   10.2215 H   0  0  0  0  0  0
    5.9838   11.3000    9.5115 H   0  0  0  0  0  0
    9.5716   12.5759    3.8166 C   0  0  0  0  0  0
    9.7455   11.0109    3.8905 C   0  0  0  0  0  0
   10.5994   10.6014    5.0611 C   0  0  0  0  0  0
   11.2249   11.4508    5.8888 C   0  0  0  0  0  0
   10.7332    9.1037    5.2724 C   0  0  0  0  0  0
    8.7636   12.8381    3.1129 H   0  0  0  0  0  0
   10.5089   13.0384    3.4641 H   0  0  0  0  0  0
    9.3244   12.9928    4.8073 H   0  0  0  0  0  0
    8.7837   10.5224    4.1392 H   0  0  0  0  0  0
   10.0994   10.5880    2.9307 H   0  0  0  0  0  0
   11.8362   11.0556    6.7081 H   0  0  0  0  0  0
   11.1336   12.5394    5.8005 H   0  0  0  0  0  0
   11.3653    8.7650    6.1104 H   0  0  0  0  0  0
   11.1849    8.7561    4.3281 H   0  0  0  0  0  0
    9.7360    8.6437    5.3756 H   0  0  0  0  0  0
  1  2  1  0  0  0
  2  3  1  0  0  0
  3  4  2  0  0  0
  3  5  1  0  0  0
  1  6  1  0  0  0
  1  7  1  0  0  0
  1  8  1  0  0  0
  2  9  1  0  0  0
  2 10  1  0  0  0
  4 11  1  0  0  0
  4 12  1  0  0  0
  5 13  1  0  0  0
  5 14  1  0  0  0
  5 15  1  0  0  0
 16 17  1  0  0  0
 17 18  1  0  0  0
 18 19  2  0  0  0
 18 20  1  0  0  0
 16 21  1  0  0  0
 16 22  1  0  0  0
 16 23  1  0  0  0
 17 24  1  0  0  0
 17 25  1  0  0  0
 19 26  1  0  0  0
 19 27  1  0  0  0
 20 28  1  0  0  0
 20 29  1  0  0  0
 20 30  1  0  0  0
M  END
$$$$
