


 13 11  0  0  1  0            999 V2000
    0.0000    0.0000    0.0000 C   0  0  0  0  0  0
    0.8113    1.2873    0.0955 C   0  0  0  0  0  0
    1.1188    1.6882    1.5319 C   0  0  0  0  0  0
    0.9817    2.8604    1.8881 O   0  0  0  0  0  0
   -1.0413    0.2376    0.2754 H   0  0  0  0  0  0
    0.3582   -0.8163    0.6495 H   0  0  0  0  0  0
    0.0163   -0.3497   -1.0460 H   0  0  0  0  0  0
    1.8025    1.1937   -0.3884 H   0  0  0  0  0  0
    0.2529    2.0839   -0.4327 H   0  0  0  0  0  0
    1.4590    0.8515    2.1890 H   0  0  0  0  0  0
    1.4240   -0.1344    5.5102 O   0  0  0  0  0  0
    1.5874   -1.0173    5.1077 H   0  0  0  0  0  0
    0.7048   -0.2889    6.1638 H   0  0  0  0  0  0
  1  2  1  0  0  0
  2  3  1  0  0  0
  3  4  2  0  0  0
  1  5  1  0  0  0
  1  6  1  0  0  0
  1  7  1  0  0  0
  2  8  1  0  0  0
  2  9  1  0  0  0
  3 10  1  0  0  0
 11 12  1  0  0  0
 11 13  1  0  0  0
M  END
$$$$
