


 27 27  0  0  1  0            999 V2000
    3.1865    0.0670    2.9048 C   0  0  0  0  0  0
    2.6294    1.4641    3.2064 C   0  0  0  0  0  0
    2.2298    1.9727    1.8211 C   0  0  0  0  0  0
    3.4294    1.5681    0.9550 C   0  0  0  0  0  0
    3.8994    0.2088    1.5348 C   0  0  0  0  0  0
    2.3432   -0.6449    2.8175 H   0  0  0  0  0  0
    3.8621   -0.3071    3.6979 H   0  0  0  0  0  0
    1.7950    1.4504    3.9338 H   0  0  0  0  0  0
    3.4260    2.1119    3.6202 H   0  0  0  0  0  0
    2.0185    3.0589    1.7891 H   0  0  0  0  0  0
    1.3187    1.4425    1.4833 H   0  0  0  0  0  0
    4.2294    2.3240    1.0738 H   0  0  0  0  0  0
    3.1814    1.5069   -0.1222 H   0  0  0  0  0  0
    4.9998    0.1951    1.6552 H   0  0  0  0  0  0
    3.6239   -0.6269    0.8632 H   0  0  0  0  0  0
   -4.2825   -0.0828   -1.8779 C   0  0  0  0  0  0
   -4.5397   -0.8064   -0.7129 C   0  0  0  0  0  0
   -3.7359   -1.8963   -0.3767 C   0  0  0  0  0  0
   -2.6748   -2.2626   -1.2055 C   0  0  0  0  0  0
   -2.4175   -1.5390   -2.3706 C   0  0  0  0  0  0
   -3.2214   -0.4491   -2.7067 C   0  0  0  0  0  0
   -4.9150    0.7749   -2.1424 H   0  0  0  0  0  0
   -5.3747   -0.5182   -0.0606 H   0  0  0  0  0  0
   -3.9383   -2.4657    0.5401 H   0  0  0  0  0  0
   -2.0422   -3.1202   -0.9410 H   0  0  0  0  0  0
   -1.5826   -1.8272   -3.0228 H   0  0  0  0  0  0
   -3.0190    0.1203   -3.6235 H   0  0  0  0  0  0
  1  2  1  0  0  0
  2  3  1  0  0  0
  3  4  1  0  0  0
  4  5  1  0  0  0
  1  5  1  0  0  0
  1  6  1  0  0  0
  1  7  1  0  0  0
  2  8  1  0  0  0
  2  9  1  0  0  0
  3 10  1  0  0  0
  3 11  1  0  0  0
  4 12  1  0  0  0
  4 13  1  0  0  0
  5 14  1  0  0  0
  5 15  1  0  0  0
 16 17  1  0  0  0
 17 18  2  0  0  0
 18 19  1  0  0  0
 19 20  2  0  0  0
 20 21  1  0  0  0
 16 21  2  0  0  0
 16 22  1  0  0  0
 17 23  1  0  0  0
 18 24  1  0  0  0
 19 25  1  0  0  0
 20 26  1  0  0  0
 21 27  1  0  0  0
M  END
$$$$
