


 19 19  0  0  1  0            999 V2000
    0.3485    3.4197    4.9201 C   0  0  0  0  0  0
   -0.1200    2.3834    4.1204 C   0  0  0  0  0  0
    0.6355    2.0606    2.9988 C   0  0  0  0  0  0
    1.7662    2.7105    2.6904 N   0  0  0  0  0  0
    2.1219    3.6902    3.5310 C   0  0  0  0  0  0
    1.4757    4.0860    4.6349 N   0  0  0  0  0  0
   -0.1913    3.7343    5.8230 H   0  0  0  0  0  0
   -1.0451    1.8442    4.3636 H   0  0  0  0  0  0
    0.3324    1.2547    2.3175 H   0  0  0  0  0  0
    3.0469    4.2294    3.2878 H   0  0  0  0  0  0
    3.0486   -0.0227    0.2919 C   0  0  0  0  0  0
    2.9678   -0.6050   -0.8940 N   0  0  0  0  0  0
    2.3231    0.3043   -1.6981 C   0  0  0  0  0  0
    2.0116    1.4459   -0.9918 C   0  0  0  0  0  0
    2.4831    1.2178    0.2770 N   0  0  0  0  0  0
    2.4213    1.8624    1.0690 H   0  0  0  0  0  0
    3.5013   -0.4493    1.1870 H   0  0  0  0  0  0
    2.1153    0.0910   -2.7466 H   0  0  0  0  0  0
    1.5113    2.3736   -1.2696 H   0  0  0  0  0  0
  1  2  2  0  0  0
  2  3  1  0  0  0
  3  4  2  0  0  0
  4  5  1  0  0  0
  5  6  2  0  0  0
  1  6  1  0  0  0
  1  7  1  0  0  0
  2  8  1  0  0  0
  3  9  1  0  0  0
  5 10  1  0  0  0
 11 12  2  0  0  0
 12 13  1  0  0  0
 13 14  2  0  0  0
 14 15  1  0  0  0
 15 16  1  0  0  0
 11 15  1  0  0  0
 11 17  1  0  0  0
 13 18  1  0  0  0
 14 19  1  0  0  0
M  END
$$$$
