


  4  2  0  0  1  0            999 V2000
    1.3795    1.6389    0.4953 O   0  0  0  0  0  0
    2.3358    1.8705    0.4936 H   0  0  0  0  0  0
    0.9863    2.2136    1.1905 H   0  0  0  0  0  0
    0.0000    0.0000    0.0000 Li  0  0  0  0  0  0
  1  2  1  0  0  0
  1  3  1  0  0  0
M  CHG  1   4   1
M  END
$$$$
