


  4  2  0  0  1  0            999 V2000
    3.4917    1.8584   -2.9156 O   0  0  0  0  0  0
    2.9660    2.6613   -3.1330 H   0  0  0  0  0  0
    3.5439    1.8547   -1.9330 H   0  0  0  0  0  0
    0.0000    0.0000    0.0000 Li  0  0  0  0  0  0
  1  2  1  0  0  0
  1  3  1  0  0  0
M  CHG  1   4   1
M  END
$$$$
