


  4  2  0  0  1  0            999 V2000
   -1.4953   -1.2392    0.0440 O   0  0  0  0  0  0
   -2.4754   -1.1521    0.0376 H   0  0  0  0  0  0
   -1.3327   -2.2059    0.1293 H   0  0  0  0  0  0
    0.7677    0.6404   -0.0232 Li  0  0  0  0  0  0
  1  2  1  0  0  0
  1  3  1  0  0  0
M  CHG  1   4   1
M  END
$$$$
