


 16 14  0  0  1  0            999 V2000
    3.2157    3.0043    2.7423 C   0  0  0  0  0  0
    2.4056    1.8664    2.1713 C   0  0  0  0  0  0
    1.9734    2.1959    0.3172 Br  0  0  0  0  0  0
    3.3507    0.1916    2.3572 Br  0  0  0  0  0  0
    2.6533    3.9493    2.6567 H   0  0  0  0  0  0
    4.1724    3.1144    2.2046 H   0  0  0  0  0  0
    3.4306    2.8181    3.8080 H   0  0  0  0  0  0
    1.4339    1.7228    2.6862 H   0  0  0  0  0  0
   -2.3765   -1.6914   -0.3829 C   0  0  0  0  0  0
   -1.6018   -1.9026    0.8948 C   0  0  0  0  0  0
   -2.4666   -1.0125    2.3756 Br  0  0  0  0  0  0
   -1.3949   -3.7872    1.2670 Br  0  0  0  0  0  0
   -2.4622   -0.6133   -0.5994 H   0  0  0  0  0  0
   -3.3914   -2.1158   -0.3020 H   0  0  0  0  0  0
   -1.8573   -2.1792   -1.2250 H   0  0  0  0  0  0
   -0.5736   -1.4890    0.8536 H   0  0  0  0  0  0
  1  2  1  0  0  0
  2  3  1  0  0  0
  2  4  1  0  0  0
  1  5  1  0  0  0
  1  6  1  0  0  0
  1  7  1  0  0  0
  2  8  1  0  0  0
  9 10  1  0  0  0
 10 11  1  0  0  0
 10 12  1  0  0  0
  9 13  1  0  0  0
  9 14  1  0  0  0
  9 15  1  0  0  0
 10 16  1  0  0  0
M  END
$$$$
