


 14 12  0  0  1  0            999 V2000
    1.2217    0.9898    3.2343 C   0  0  0  0  0  0
    2.2344    0.2653    2.4582 N   0  0  0  0  0  0
    0.2271    0.6128    2.9425 H   0  0  0  0  0  0
    1.2384    2.0837    3.0944 H   0  0  0  0  0  0
    1.3818    0.7694    4.3031 H   0  0  0  0  0  0
    2.1163    0.4559    1.4570 H   0  0  0  0  0  0
    3.1733    0.5992    2.7026 H   0  0  0  0  0  0
    1.5320    4.2964   -2.0616 O   0  0  0  0  0  0
    1.1583    3.5292   -2.9907 C   0  0  0  0  0  0
    1.2460    2.2726   -3.0614 O   0  0  0  0  0  0
    0.4637    4.2224   -4.1952 C   0  0  0  0  0  0
   -0.6194    4.2759   -3.9937 H   0  0  0  0  0  0
    0.8458    5.2469   -4.3399 H   0  0  0  0  0  0
    0.6205    3.6535   -5.1271 H   0  0  0  0  0  0
  1  2  1  0  0  0
  1  3  1  0  0  0
  1  4  1  0  0  0
  1  5  1  0  0  0
  2  6  1  0  0  0
  2  7  1  0  0  0
  8  9  1  0  0  0
  9 10  2  0  0  0
  9 11  1  0  0  0
 11 12  1  0  0  0
 11 13  1  0  0  0
 11 14  1  0  0  0
M  CHG  1   8  -1
M  END
$$$$
