


 27 25  0  0  1  0            999 V2000
    0.7660    3.1542    4.1178 C   0  0  0  0  0  0
   -0.0882    2.3669    3.1247 C   0  0  0  0  0  0
    0.0227    0.8572    3.3256 C   0  0  0  0  0  0
   -0.8315    0.0700    2.3325 C   0  0  0  0  0  0
    0.6660    4.2396    3.9490 H   0  0  0  0  0  0
    1.8278    2.8771    4.0059 H   0  0  0  0  0  0
    0.4504    2.9282    5.1502 H   0  0  0  0  0  0
   -1.1489    2.6642    3.2340 H   0  0  0  0  0  0
    0.2257    2.6132    2.0921 H   0  0  0  0  0  0
    1.0834    0.5600    3.2163 H   0  0  0  0  0  0
   -0.2912    0.6110    4.3582 H   0  0  0  0  0  0
   -0.5158    0.2960    1.3001 H   0  0  0  0  0  0
   -1.8933    0.3471    2.4443 H   0  0  0  0  0  0
   -0.7315   -1.0154    2.5013 H   0  0  0  0  0  0
    1.3624    2.0238   -0.2131 O   0  0  0  0  0  0
    2.6924    1.5382   -0.0683 C   0  0  0  0  0  0
    3.3391    1.9476    1.2497 C   0  0  0  0  0  0
    3.6217    3.4402    1.3372 C   0  0  0  0  0  0
    2.4339    4.2441    1.2385 O   0  0  0  0  0  0
    1.4018    2.9824   -0.0131 H   0  0  0  0  0  0
    2.6214    0.4353   -0.1308 H   0  0  0  0  0  0
    3.3269    1.8827   -0.9075 H   0  0  0  0  0  0
    2.6860    1.6367    2.0876 H   0  0  0  0  0  0
    4.3022    1.4125    1.3571 H   0  0  0  0  0  0
    4.1703    3.6839    2.2673 H   0  0  0  0  0  0
    4.2498    3.7578    0.4829 H   0  0  0  0  0  0
    1.9109    4.0985    2.0544 H   0  0  0  0  0  0
  1  2  1  0  0  0
  2  3  1  0  0  0
  3  4  1  0  0  0
  1  5  1  0  0  0
  1  6  1  0  0  0
  1  7  1  0  0  0
  2  8  1  0  0  0
  2  9  1  0  0  0
  3 10  1  0  0  0
  3 11  1  0  0  0
  4 12  1  0  0  0
  4 13  1  0  0  0
  4 14  1  0  0  0
 15 16  1  0  0  0
 16 17  1  0  0  0
 17 18  1  0  0  0
 18 19  1  0  0  0
 15 20  1  0  0  0
 16 21  1  0  0  0
 16 22  1  0  0  0
 17 23  1  0  0  0
 17 24  1  0  0  0
 18 25  1  0  0  0
 18 26  1  0  0  0
 19 27  1  0  0  0
M  END
$$$$
