


 19 18  0  0  1  0            999 V2000
    0.4813   -1.1778   -1.0952 S   0  0  0  0  0  0
    2.0303   -0.3166   -1.4405 C   0  0  0  0  0  0
    1.9117    1.1442   -2.4954 S   0  0  0  0  0  0
    0.9559    2.1849   -1.3712 C   0  0  0  0  0  0
   -0.7282    1.6381   -1.0172 S   0  0  0  0  0  0
   -0.3149    0.1222   -0.1274 C   0  0  0  0  0  0
    2.5283   -0.0493   -0.4886 H   0  0  0  0  0  0
    2.6820   -1.0376   -1.9704 H   0  0  0  0  0  0
    0.8715    3.1777   -1.8536 H   0  0  0  0  0  0
    1.5116    2.3176   -0.4230 H   0  0  0  0  0  0
   -1.2698   -0.2982    0.2424 H   0  0  0  0  0  0
    0.3092    0.3658    0.7539 H   0  0  0  0  0  0
    1.9946    0.2456    1.1759 O   0  0  0  0  0  0
    2.3875    1.4093    1.4639 C   0  0  0  0  0  0
    2.2579    2.4741    0.7999 O   0  0  0  0  0  0
    3.0952    1.5577    2.8390 C   0  0  0  0  0  0
    2.3328    1.7769    3.6054 H   0  0  0  0  0  0
    3.6193    0.6286    3.1198 H   0  0  0  0  0  0
    3.8264    2.3833    2.8239 H   0  0  0  0  0  0
  1  2  1  0  0  0
  2  3  1  0  0  0
  3  4  1  0  0  0
  4  5  1  0  0  0
  5  6  1  0  0  0
  1  6  1  0  0  0
  2  7  1  0  0  0
  2  8  1  0  0  0
  4  9  1  0  0  0
  4 10  1  0  0  0
  6 11  1  0  0  0
  6 12  1  0  0  0
 13 14  1  0  0  0
 14 15  2  0  0  0
 14 16  1  0  0  0
 16 17  1  0  0  0
 16 18  1  0  0  0
 16 19  1  0  0  0
M  CHG  1  13  -1
M  END
$$$$
