


 21 19  0  0  1  0            999 V2000
    0.7252    3.5724    3.9909 C   0  0  0  0  0  0
    1.5745    2.6100    3.1899 C   0  0  0  0  0  0
    2.6547    2.1860    3.5765 O   0  0  0  0  0  0
    1.0412    2.2431    1.9863 N   0  0  0  0  0  0
    1.2386    3.8057    4.9388 H   0  0  0  0  0  0
   -0.2582    3.1301    4.2231 H   0  0  0  0  0  0
    0.5661    4.5125    3.4363 H   0  0  0  0  0  0
    0.1375    2.5995    1.6656 H   0  0  0  0  0  0
    1.5718    1.5934    1.4007 H   0  0  0  0  0  0
    2.4834   -1.2570    1.8628 C   0  0  0  0  0  0
    2.9048   -0.7382    0.5189 C   0  0  0  0  0  0
    3.6953    0.3230    0.3249 C   0  0  0  0  0  0
    4.1167    0.8418   -1.0190 C   0  0  0  0  0  0
    2.9192   -0.6375    2.6646 H   0  0  0  0  0  0
    2.8246   -2.2973    1.9971 H   0  0  0  0  0  0
    1.3847   -1.2321    1.9567 H   0  0  0  0  0  0
    2.5312   -1.2767   -0.3620 H   0  0  0  0  0  0
    4.0690    0.8615    1.2058 H   0  0  0  0  0  0
    3.7756    1.8821   -1.1533 H   0  0  0  0  0  0
    5.2154    0.8169   -1.1129 H   0  0  0  0  0  0
    3.6809    0.2223   -1.8208 H   0  0  0  0  0  0
  1  2  1  0  0  0
  2  3  2  0  0  0
  2  4  1  0  0  0
  1  5  1  0  0  0
  1  6  1  0  0  0
  1  7  1  0  0  0
  4  8  1  0  0  0
  4  9  1  0  0  0
 10 11  1  0  0  0
 11 12  2  0  0  0
 12 13  1  0  0  0
 10 14  1  0  0  0
 10 15  1  0  0  0
 10 16  1  0  0  0
 11 17  1  0  0  0
 12 18  1  0  0  0
 13 19  1  0  0  0
 13 20  1  0  0  0
 13 21  1  0  0  0
M  END
$$$$
