


  8  6  0  0  1  0            999 V2000
    0.3835    2.2280    3.8833 S   0  0  0  0  0  0
   -0.8821    2.2616    5.5512 S   0  0  0  0  0  0
   -0.4549    1.5636    3.0599 H   0  0  0  0  0  0
   -1.6258    3.2998    5.1135 H   0  0  0  0  0  0
   -1.7760   -2.7714    2.2878 S   0  0  0  0  0  0
   -3.7659   -2.1113    2.6769 S   0  0  0  0  0  0
   -2.1148   -4.0752    2.1984 H   0  0  0  0  0  0
   -4.2875   -2.4706    1.4847 H   0  0  0  0  0  0
  1  2  1  0  0  0
  1  3  1  0  0  0
  2  4  1  0  0  0
  5  6  1  0  0  0
  5  7  1  0  0  0
  6  8  1  0  0  0
M  END
$$$$
