


  8  6  0  0  1  0            999 V2000
   -2.6052   -0.9076    3.0449 S   0  0  0  0  0  0
   -1.0992    0.5882    3.2565 S   0  0  0  0  0  0
   -3.5869   -0.2974    2.3474 H   0  0  0  0  0  0
   -1.4789    1.0827    4.4539 H   0  0  0  0  0  0
    2.8438    4.2921    4.3787 S   0  0  0  0  0  0
    1.3594    4.1383    5.8252 S   0  0  0  0  0  0
    3.5735    3.1945    4.6708 H   0  0  0  0  0  0
    0.5074    3.4154    5.0677 H   0  0  0  0  0  0
  1  2  1  0  0  0
  1  3  1  0  0  0
  2  4  1  0  0  0
  5  6  1  0  0  0
  5  7  1  0  0  0
  6  8  1  0  0  0
M  END
$$$$
