


  8  6  0  0  1  0            999 V2000
    4.7832   -2.9953    3.6315 S   0  0  0  0  0  0
    6.3993   -1.6634    4.2214 S   0  0  0  0  0  0
    4.9890   -4.0433    4.4572 H   0  0  0  0  0  0
    7.3654   -2.3830    3.6120 H   0  0  0  0  0  0
    7.4184   -5.3105    6.1209 S   0  0  0  0  0  0
    6.0934   -5.4897    4.5168 S   0  0  0  0  0  0
    6.6561   -4.7773    7.0992 H   0  0  0  0  0  0
    5.4193   -6.5758    4.9509 H   0  0  0  0  0  0
  1  2  1  0  0  0
  1  3  1  0  0  0
  2  4  1  0  0  0
  5  6  1  0  0  0
  5  7  1  0  0  0
  6  8  1  0  0  0
M  END
$$$$
