


  8  6  0  0  1  0            999 V2000
    0.0000    0.0000    0.0000 S   0  0  0  0  0  0
   -0.7192    1.8236   -0.7641 S   0  0  0  0  0  0
   -1.1711   -0.5180    0.4274 H   0  0  0  0  0  0
   -0.7429    2.3912    0.4605 H   0  0  0  0  0  0
   -0.0308    7.6155   -1.7637 S   0  0  0  0  0  0
   -1.1727    6.6762   -0.3201 S   0  0  0  0  0  0
    1.1968    7.5781   -1.2033 H   0  0  0  0  0  0
   -1.1198    7.6492    0.6143 H   0  0  0  0  0  0
  1  2  1  0  0  0
  1  3  1  0  0  0
  2  4  1  0  0  0
  5  6  1  0  0  0
  5  7  1  0  0  0
  6  8  1  0  0  0
M  END
$$$$
