


  8  6  0  0  1  0            999 V2000
    4.2144    2.4763   -2.4181 S   0  0  0  0  0  0
    2.1775    2.8210   -2.1113 S   0  0  0  0  0  0
    4.1838    2.1196   -3.7197 H   0  0  0  0  0  0
    2.1082    4.1401   -2.3900 H   0  0  0  0  0  0
    5.1153   -4.1739    1.6021 S   0  0  0  0  0  0
    3.4216   -4.0399    0.4462 S   0  0  0  0  0  0
    5.0178   -5.4400    2.0605 H   0  0  0  0  0  0
    2.5314   -3.4813    1.2935 H   0  0  0  0  0  0
  1  2  1  0  0  0
  1  3  1  0  0  0
  2  4  1  0  0  0
  5  6  1  0  0  0
  5  7  1  0  0  0
  6  8  1  0  0  0
M  END
$$$$
