


  8  6  0  0  1  0            999 V2000
    0.0000    0.0000    0.0000 S   0  0  0  0  0  0
    0.0245    1.8337   -1.0113 S   0  0  0  0  0  0
    0.6146    0.2839    1.1680 H   0  0  0  0  0  0
    1.2483    1.7557   -1.5761 H   0  0  0  0  0  0
    5.1192    0.7392    0.7117 S   0  0  0  0  0  0
    3.8398    2.3183    0.2413 S   0  0  0  0  0  0
    6.0583    0.8724   -0.2489 H   0  0  0  0  0  0
    4.7464    3.2801    0.5159 H   0  0  0  0  0  0
  1  2  1  0  0  0
  1  3  1  0  0  0
  2  4  1  0  0  0
  5  6  1  0  0  0
  5  7  1  0  0  0
  6  8  1  0  0  0
M  END
$$$$
