


  8  6  0  0  1  0            999 V2000
   -1.8266   -0.1200    4.0857 S   0  0  0  0  0  0
   -0.4792   -1.6075    3.5002 S   0  0  0  0  0  0
   -2.9632   -0.8365    3.9543 H   0  0  0  0  0  0
   -0.5774   -1.5169    2.1569 H   0  0  0  0  0  0
    2.4304    1.3667    3.9527 S   0  0  0  0  0  0
    2.2104    2.7861    2.3879 S   0  0  0  0  0  0
    2.0491    0.2604    3.2795 H   0  0  0  0  0  0
    0.8988    3.0702    2.5340 H   0  0  0  0  0  0
  1  2  1  0  0  0
  1  3  1  0  0  0
  2  4  1  0  0  0
  5  6  1  0  0  0
  5  7  1  0  0  0
  6  8  1  0  0  0
M  END
$$$$
