


  8  6  0  0  1  0            999 V2000
    0.2904   -5.0742   16.1250 S   0  0  0  0  0  0
    2.1288   -5.1657   15.1629 S   0  0  0  0  0  0
   -0.2425   -6.2342   15.6857 H   0  0  0  0  0  0
    1.9344   -4.4752   14.0192 H   0  0  0  0  0  0
   -3.5184   -5.1874   16.3526 S   0  0  0  0  0  0
   -5.5715   -5.3381   16.3718 S   0  0  0  0  0  0
   -3.4156   -4.4476   15.2281 H   0  0  0  0  0  0
   -5.6706   -6.2966   15.4263 H   0  0  0  0  0  0
  1  2  1  0  0  0
  1  3  1  0  0  0
  2  4  1  0  0  0
  5  6  1  0  0  0
  5  7  1  0  0  0
  6  8  1  0  0  0
M  END
$$$$
