


  8  6  0  0  1  0            999 V2000
    1.0493   -3.9861   -4.3174 S   0  0  0  0  0  0
    0.8393   -4.5965   -2.3842 S   0  0  0  0  0  0
    1.1956   -2.6582   -4.1229 H   0  0  0  0  0  0
   -0.4901   -4.3764   -2.3022 H   0  0  0  0  0  0
   -4.3047    0.0014   -2.9339 S   0  0  0  0  0  0
   -3.0752    1.6939   -3.0838 S   0  0  0  0  0  0
   -3.3761   -0.9045   -2.5604 H   0  0  0  0  0  0
   -2.4508    1.4399   -4.2535 H   0  0  0  0  0  0
  1  2  1  0  0  0
  1  3  1  0  0  0
  2  4  1  0  0  0
  5  6  1  0  0  0
  5  7  1  0  0  0
  6  8  1  0  0  0
M  END
$$$$
