


  8  6  0  0  1  0            999 V2000
    0.0000    0.0000    0.0000 S   0  0  0  0  0  0
   -0.7379    1.3842   -1.4385 S   0  0  0  0  0  0
    1.3213    0.2269   -0.1590 H   0  0  0  0  0  0
   -0.1573    0.8498   -2.5338 H   0  0  0  0  0  0
    1.9789    3.2609   -4.5410 S   0  0  0  0  0  0
    1.9118    1.2504   -5.0053 S   0  0  0  0  0  0
    3.1798    3.6684   -5.0038 H   0  0  0  0  0  0
    2.1617    0.7742   -3.7670 H   0  0  0  0  0  0
  1  2  1  0  0  0
  1  3  1  0  0  0
  2  4  1  0  0  0
  5  6  1  0  0  0
  5  7  1  0  0  0
  6  8  1  0  0  0
M  END
$$$$
