


  8  6  0  0  1  0            999 V2000
   -1.0679   -3.4877    1.2304 S   0  0  0  0  0  0
    0.8189   -4.0106    1.9728 S   0  0  0  0  0  0
   -1.8097   -4.2723    2.0407 H   0  0  0  0  0  0
    1.1750   -5.1639    1.3684 H   0  0  0  0  0  0
    5.6584   -7.1417    2.3293 S   0  0  0  0  0  0
    4.1057   -5.9566    2.9245 S   0  0  0  0  0  0
    6.1309   -7.2113    3.5920 H   0  0  0  0  0  0
    4.7352   -4.8349    2.5146 H   0  0  0  0  0  0
  1  2  1  0  0  0
  1  3  1  0  0  0
  2  4  1  0  0  0
  5  6  1  0  0  0
  5  7  1  0  0  0
  6  8  1  0  0  0
M  END
$$$$
