


 24 23  0  0  1  0            999 V2000
   -1.0588    2.0845    1.5336 C   0  0  0  0  0  0
    0.2529    1.5489    1.8415 N   0  0  0  0  0  0
    0.4442    0.7469    2.9256 C   0  0  0  0  0  0
   -0.4805    0.4502    3.6762 O   0  0  0  0  0  0
    1.8643    0.2609    3.1242 C   0  0  0  0  0  0
   -0.9901    2.7024    0.6225 H   0  0  0  0  0  0
   -1.4317    2.7144    2.3586 H   0  0  0  0  0  0
   -1.7844    1.2732    1.3546 H   0  0  0  0  0  0
    1.0491    1.7734    1.2397 H   0  0  0  0  0  0
    2.5565    1.1085    3.2628 H   0  0  0  0  0  0
    1.9027   -0.3755    4.0243 H   0  0  0  0  0  0
    2.2039   -0.3327    2.2588 H   0  0  0  0  0  0
    3.4790    4.8029   -2.6189 C   0  0  0  0  0  0
    3.0107    3.8077   -3.4775 C   0  0  0  0  0  0
    3.6204    2.5526   -3.4891 C   0  0  0  0  0  0
    4.6984    2.2927   -2.6420 C   0  0  0  0  0  0
    5.1667    3.2880   -1.7834 C   0  0  0  0  0  0
    4.5570    4.5431   -1.7719 C   0  0  0  0  0  0
    2.9993    5.7905   -2.6098 H   0  0  0  0  0  0
    2.1625    4.0121   -4.1441 H   0  0  0  0  0  0
    3.2519    1.7694   -4.1647 H   0  0  0  0  0  0
    5.1781    1.3051   -2.6511 H   0  0  0  0  0  0
    6.0149    3.0835   -1.1169 H   0  0  0  0  0  0
    4.9255    5.3263   -1.0962 H   0  0  0  0  0  0
  1  2  1  0  0  0
  2  3  1  0  0  0
  3  4  2  0  0  0
  3  5  1  0  0  0
  1  6  1  0  0  0
  1  7  1  0  0  0
  1  8  1  0  0  0
  2  9  1  0  0  0
  5 10  1  0  0  0
  5 11  1  0  0  0
  5 12  1  0  0  0
 13 14  1  0  0  0
 14 15  2  0  0  0
 15 16  1  0  0  0
 16 17  2  0  0  0
 17 18  1  0  0  0
 13 18  2  0  0  0
 13 19  1  0  0  0
 14 20  1  0  0  0
 15 21  1  0  0  0
 16 22  1  0  0  0
 17 23  1  0  0  0
 18 24  1  0  0  0
M  END
$$$$
