


 27 26  0  0  1  0            999 V2000
    1.0854    3.0727    0.9824 C   0  0  0  0  0  0
    2.1505    2.0921    0.4920 C   0  0  0  0  0  0
    2.4049    2.2757   -1.0039 C   0  0  0  0  0  0
    3.4464    2.2627    1.2844 C   0  0  0  0  0  0
    1.4367    4.1068    0.8283 H   0  0  0  0  0  0
    0.8848    2.9256    2.0570 H   0  0  0  0  0  0
    0.1427    2.9349    0.4265 H   0  0  0  0  0  0
    1.7758    1.0614    0.6567 H   0  0  0  0  0  0
    2.7790    3.2960   -1.1924 H   0  0  0  0  0  0
    3.1569    1.5532   -1.3633 H   0  0  0  0  0  0
    1.4746    2.1304   -1.5786 H   0  0  0  0  0  0
    3.2681    2.1080    2.3619 H   0  0  0  0  0  0
    4.2082    1.5401    0.9466 H   0  0  0  0  0  0
    3.8386    3.2828    1.1356 H   0  0  0  0  0  0
   -0.7795    1.6427   -1.3963 O   0  0  0  0  0  0
   -0.0916    0.8337   -0.5274 C   0  0  0  0  0  0
    0.9196    0.0370   -1.0652 C   0  0  0  0  0  0
    1.6516   -0.8044   -0.2310 C   0  0  0  0  0  0
    1.3825   -0.8574    1.1377 C   0  0  0  0  0  0
    0.3708   -0.0587    1.6683 C   0  0  0  0  0  0
   -0.3672    0.7868    0.8398 C   0  0  0  0  0  0
   -1.4583    2.1446   -0.8830 H   0  0  0  0  0  0
    1.1199    0.0894   -2.1435 H   0  0  0  0  0  0
    2.4462   -1.4290   -0.6602 H   0  0  0  0  0  0
    1.9624   -1.5223    1.7912 H   0  0  0  0  0  0
    0.1478   -0.0898    2.7430 H   0  0  0  0  0  0
   -1.1638    1.4153    1.2594 H   0  0  0  0  0  0
  1  2  1  0  0  0
  2  3  1  0  0  0
  2  4  1  0  0  0
  1  5  1  0  0  0
  1  6  1  0  0  0
  1  7  1  0  0  0
  2  8  1  0  0  0
  3  9  1  0  0  0
  3 10  1  0  0  0
  3 11  1  0  0  0
  4 12  1  0  0  0
  4 13  1  0  0  0
  4 14  1  0  0  0
 15 16  1  0  0  0
 16 17  2  0  0  0
 17 18  1  0  0  0
 18 19  2  0  0  0
 19 20  1  0  0  0
 20 21  2  0  0  0
 16 21  1  0  0  0
 15 22  1  0  0  0
 17 23  1  0  0  0
 18 24  1  0  0  0
 19 25  1  0  0  0
 20 26  1  0  0  0
 21 27  1  0  0  0
M  END
$$$$
