


 27 26  0  0  1  0            999 V2000
    1.0854    3.0727    0.9824 C   0  0  0  0  0  0
    2.1505    2.0921    0.4920 C   0  0  0  0  0  0
    2.4049    2.2757   -1.0039 C   0  0  0  0  0  0
    3.4464    2.2627    1.2844 C   0  0  0  0  0  0
    1.4367    4.1068    0.8283 H   0  0  0  0  0  0
    0.8848    2.9256    2.0570 H   0  0  0  0  0  0
    0.1427    2.9349    0.4265 H   0  0  0  0  0  0
    1.7758    1.0614    0.6567 H   0  0  0  0  0  0
    2.7790    3.2960   -1.1924 H   0  0  0  0  0  0
    3.1569    1.5532   -1.3633 H   0  0  0  0  0  0
    1.4746    2.1304   -1.5786 H   0  0  0  0  0  0
    3.2681    2.1080    2.3619 H   0  0  0  0  0  0
    4.2082    1.5401    0.9466 H   0  0  0  0  0  0
    3.8386    3.2828    1.1356 H   0  0  0  0  0  0
   -0.8330    1.5582   -1.3986 O   0  0  0  0  0  0
   -0.1451    0.7492   -0.5297 C   0  0  0  0  0  0
    0.8662   -0.0475   -1.0675 C   0  0  0  0  0  0
    1.5982   -0.8889   -0.2333 C   0  0  0  0  0  0
    1.3290   -0.9419    1.1354 C   0  0  0  0  0  0
    0.3174   -0.1432    1.6660 C   0  0  0  0  0  0
   -0.4207    0.7024    0.8375 C   0  0  0  0  0  0
   -1.5118    2.0601   -0.8853 H   0  0  0  0  0  0
    1.0664    0.0050   -2.1458 H   0  0  0  0  0  0
    2.3928   -1.5134   -0.6625 H   0  0  0  0  0  0
    1.9089   -1.6068    1.7889 H   0  0  0  0  0  0
    0.0943   -0.1743    2.7407 H   0  0  0  0  0  0
   -1.2173    1.3308    1.2571 H   0  0  0  0  0  0
  1  2  1  0  0  0
  2  3  1  0  0  0
  2  4  1  0  0  0
  1  5  1  0  0  0
  1  6  1  0  0  0
  1  7  1  0  0  0
  2  8  1  0  0  0
  3  9  1  0  0  0
  3 10  1  0  0  0
  3 11  1  0  0  0
  4 12  1  0  0  0
  4 13  1  0  0  0
  4 14  1  0  0  0
 15 16  1  0  0  0
 16 17  2  0  0  0
 17 18  1  0  0  0
 18 19  2  0  0  0
 19 20  1  0  0  0
 20 21  2  0  0  0
 16 21  1  0  0  0
 15 22  1  0  0  0
 17 23  1  0  0  0
 18 24  1  0  0  0
 19 25  1  0  0  0
 20 26  1  0  0  0
 21 27  1  0  0  0
M  END
$$$$
