


 20 19  0  0  1  0            999 V2000
   -0.3612    2.2773    0.4987 C   0  0  0  0  0  0
    1.1123    2.9556   -0.2894 S   0  0  0  0  0  0
    2.4651    1.4379   -0.0374 S   0  0  0  0  0  0
   -1.1793    2.9998    0.3400 H   0  0  0  0  0  0
   -0.2218    2.1364    1.5838 H   0  0  0  0  0  0
   -0.6535    1.3115    0.0533 H   0  0  0  0  0  0
    2.9357    1.7874    1.1787 H   0  0  0  0  0  0
    0.1783    4.1898    2.2636 O   0  0  0  0  0  0
    1.2684    3.3962    2.5178 C   0  0  0  0  0  0
    1.0478    2.2260    3.2449 C   0  0  0  0  0  0
    2.1170    1.3814    3.5331 C   0  0  0  0  0  0
    3.4066    1.6953    3.1010 C   0  0  0  0  0  0
    3.6200    2.8659    2.3751 C   0  0  0  0  0  0
    2.5546    3.7175    2.0821 C   0  0  0  0  0  0
    0.4794    4.9755    1.7458 H   0  0  0  0  0  0
    0.0279    1.9925    3.5781 H   0  0  0  0  0  0
    1.9369    0.4620    4.1057 H   0  0  0  0  0  0
    4.2463    1.0261    3.3308 H   0  0  0  0  0  0
    4.6289    3.1258    2.0286 H   0  0  0  0  0  0
    2.7244    4.6392    1.5101 H   0  0  0  0  0  0
  1  2  1  0  0  0
  2  3  1  0  0  0
  1  4  1  0  0  0
  1  5  1  0  0  0
  1  6  1  0  0  0
  3  7  1  0  0  0
  8  9  1  0  0  0
  9 10  2  0  0  0
 10 11  1  0  0  0
 11 12  2  0  0  0
 12 13  1  0  0  0
 13 14  2  0  0  0
  9 14  1  0  0  0
  8 15  1  0  0  0
 10 16  1  0  0  0
 11 17  1  0  0  0
 12 18  1  0  0  0
 13 19  1  0  0  0
 14 20  1  0  0  0
M  END
$$$$
