


 29 28  0  0  1  0            999 V2000
    0.6655    3.4680   -0.4458 C   0  0  0  0  0  0
   -0.5094    2.6445    0.0663 C   0  0  0  0  0  0
   -0.4165    1.2283   -0.2871 N   0  0  0  0  0  0
   -1.4730    0.4882    0.3889 C   0  0  0  0  0  0
   -0.5388    1.0331   -1.7267 C   0  0  0  0  0  0
    1.6137    3.0007   -0.1309 H   0  0  0  0  0  0
    0.6153    4.4840   -0.0193 H   0  0  0  0  0  0
    0.6608    3.5476   -1.5459 H   0  0  0  0  0  0
   -0.5282    2.6980    1.1719 H   0  0  0  0  0  0
   -1.4587    3.0738   -0.3076 H   0  0  0  0  0  0
   -2.4776    0.8326    0.0912 H   0  0  0  0  0  0
   -1.3822   -0.5839    0.1461 H   0  0  0  0  0  0
   -1.3677    0.6120    1.4799 H   0  0  0  0  0  0
   -1.4844    1.4454   -2.1170 H   0  0  0  0  0  0
    0.3004    1.5200   -2.2515 H   0  0  0  0  0  0
   -0.5100   -0.0478   -1.9441 H   0  0  0  0  0  0
    2.0462    0.2560   -0.1240 O   0  0  0  0  0  0
    2.6444    0.4742    1.0914 C   0  0  0  0  0  0
    3.9651    0.0483    1.2360 C   0  0  0  0  0  0
    4.6237    0.2432    2.4476 C   0  0  0  0  0  0
    3.9742    0.8608    3.5177 C   0  0  0  0  0  0
    2.6548    1.2839    3.3664 C   0  0  0  0  0  0
    1.9877    1.0925    2.1562 C   0  0  0  0  0  0
    1.1226    0.6046   -0.0834 H   0  0  0  0  0  0
    4.4629   -0.4359    0.3854 H   0  0  0  0  0  0
    5.6630   -0.0942    2.5552 H   0  0  0  0  0  0
    4.4977    1.0122    4.4709 H   0  0  0  0  0  0
    2.1311    1.7711    4.1994 H   0  0  0  0  0  0
    0.9483    1.4263    2.0387 H   0  0  0  0  0  0
  1  2  1  0  0  0
  2  3  1  0  0  0
  3  4  1  0  0  0
  3  5  1  0  0  0
  1  6  1  0  0  0
  1  7  1  0  0  0
  1  8  1  0  0  0
  2  9  1  0  0  0
  2 10  1  0  0  0
  4 11  1  0  0  0
  4 12  1  0  0  0
  4 13  1  0  0  0
  5 14  1  0  0  0
  5 15  1  0  0  0
  5 16  1  0  0  0
 17 18  1  0  0  0
 18 19  2  0  0  0
 19 20  1  0  0  0
 20 21  2  0  0  0
 21 22  1  0  0  0
 22 23  2  0  0  0
 18 23  1  0  0  0
 17 24  1  0  0  0
 19 25  1  0  0  0
 20 26  1  0  0  0
 21 27  1  0  0  0
 22 28  1  0  0  0
 23 29  1  0  0  0
M  END
$$$$
