


 22 21  0  0  1  0            999 V2000
    3.1034    1.0654    3.3533 C   0  0  0  0  0  0
    2.0089    1.0609    4.4165 C   0  0  0  0  0  0
    1.0918    2.2313    4.0750 C   0  0  0  0  0  0
    2.0068    3.4393    3.8971 C   0  0  0  0  0  0
    3.5006    2.8228    3.0413 S   0  0  0  0  0  0
    2.7528    0.5928    2.4157 H   0  0  0  0  0  0
    4.0211    0.5361    3.6744 H   0  0  0  0  0  0
    1.4728    0.0926    4.4381 H   0  0  0  0  0  0
    2.4576    1.2195    5.4160 H   0  0  0  0  0  0
    0.3290    2.4157    4.8557 H   0  0  0  0  0  0
    0.5595    2.0222    3.1271 H   0  0  0  0  0  0
    2.2925    3.8727    4.8748 H   0  0  0  0  0  0
    1.5474    4.2452    3.2930 H   0  0  0  0  0  0
    1.5643    0.5942   -4.1971 C   0  0  0  0  0  0
   -0.1239    0.6241   -3.5719 S   0  0  0  0  0  0
   -0.3228    2.4098   -3.4560 C   0  0  0  0  0  0
    1.8603   -0.4598   -4.3315 H   0  0  0  0  0  0
    2.2650    1.0689   -3.4897 H   0  0  0  0  0  0
    1.6437    1.1087   -5.1695 H   0  0  0  0  0  0
    0.4103    2.8533   -2.7615 H   0  0  0  0  0  0
   -0.2110    2.8930   -4.4412 H   0  0  0  0  0  0
   -1.3374    2.6166   -3.0759 H   0  0  0  0  0  0
  1  2  1  0  0  0
  2  3  1  0  0  0
  3  4  1  0  0  0
  4  5  1  0  0  0
  1  5  1  0  0  0
  1  6  1  0  0  0
  1  7  1  0  0  0
  2  8  1  0  0  0
  2  9  1  0  0  0
  3 10  1  0  0  0
  3 11  1  0  0  0
  4 12  1  0  0  0
  4 13  1  0  0  0
 14 15  1  0  0  0
 15 16  1  0  0  0
 14 17  1  0  0  0
 14 18  1  0  0  0
 14 19  1  0  0  0
 16 20  1  0  0  0
 16 21  1  0  0  0
 16 22  1  0  0  0
M  END
$$$$
