


 17 15  0  0  1  0            999 V2000
    2.8775    1.9624    2.3676 C   0  0  0  0  0  0
    1.5588    2.4353    1.8330 C   0  0  0  0  0  0
    0.4713    1.9729    2.0969 O   0  0  0  0  0  0
    1.7219    3.4839    0.9839 O   0  0  0  0  0  0
    2.7279    1.1122    3.0542 H   0  0  0  0  0  0
    3.3823    2.7742    2.9177 H   0  0  0  0  0  0
    3.5322    1.6368    1.5418 H   0  0  0  0  0  0
    0.8033    3.7255    0.6842 H   0  0  0  0  0  0
   -0.7484    2.1565   -1.4041 C   0  0  0  0  0  0
   -1.5644    3.2828   -0.7950 C   0  0  0  0  0  0
   -0.9922    3.7840    0.4141 O   0  0  0  0  0  0
    0.2841    2.4950   -1.5941 H   0  0  0  0  0  0
   -1.1946    1.8346   -2.3601 H   0  0  0  0  0  0
   -0.7147    1.2902   -0.7222 H   0  0  0  0  0  0
   -1.5943    4.1525   -1.4792 H   0  0  0  0  0  0
   -2.6074    2.9544   -0.6224 H   0  0  0  0  0  0
   -0.9598    3.0436    1.0553 H   0  0  0  0  0  0
  1  2  1  0  0  0
  2  3  2  0  0  0
  2  4  1  0  0  0
  1  5  1  0  0  0
  1  6  1  0  0  0
  1  7  1  0  0  0
  4  8  1  0  0  0
  9 10  1  0  0  0
 10 11  1  0  0  0
  9 12  1  0  0  0
  9 13  1  0  0  0
  9 14  1  0  0  0
 10 15  1  0  0  0
 10 16  1  0  0  0
 11 17  1  0  0  0
M  END
$$$$
