


 14 12  0  0  1  0            999 V2000
   -1.4635   -1.7045   -3.7007 C   0  0  0  0  0  0
   -0.5176   -2.5951   -3.0195 N   0  0  0  0  0  0
   -1.1941   -1.5022   -4.7510 H   0  0  0  0  0  0
   -1.5124   -0.7449   -3.1590 H   0  0  0  0  0  0
   -2.4618   -2.1729   -3.6775 H   0  0  0  0  0  0
   -0.5485   -3.5435   -3.4097 H   0  0  0  0  0  0
   -0.8615   -2.6725   -2.0559 H   0  0  0  0  0  0
    6.8251   -1.2666   -1.4297 C   0  0  0  0  0  0
    8.2205   -1.1076   -1.8100 N   0  0  0  0  0  0
    6.4049   -2.2445   -1.7189 H   0  0  0  0  0  0
    6.2140   -0.4714   -1.8887 H   0  0  0  0  0  0
    6.7643   -1.1681   -0.3327 H   0  0  0  0  0  0
    8.6157   -0.2060   -1.5206 H   0  0  0  0  0  0
    8.7469   -1.8258   -1.3004 H   0  0  0  0  0  0
  1  2  1  0  0  0
  1  3  1  0  0  0
  1  4  1  0  0  0
  1  5  1  0  0  0
  2  6  1  0  0  0
  2  7  1  0  0  0
  8  9  1  0  0  0
  8 10  1  0  0  0
  8 11  1  0  0  0
  8 12  1  0  0  0
  9 13  1  0  0  0
  9 14  1  0  0  0
M  END
$$$$
