


 14 12  0  0  1  0            999 V2000
   -2.9244   -3.6167   -3.0224 C   0  0  0  0  0  0
   -2.3352   -2.4644   -2.3554 N   0  0  0  0  0  0
   -3.7027   -3.1906   -3.6777 H   0  0  0  0  0  0
   -3.3795   -4.4096   -2.4053 H   0  0  0  0  0  0
   -2.1412   -4.0684   -3.6542 H   0  0  0  0  0  0
   -1.4397   -2.8255   -2.0086 H   0  0  0  0  0  0
   -2.9563   -2.4137   -1.5404 H   0  0  0  0  0  0
   -3.6624   -6.1762   -1.8839 C   0  0  0  0  0  0
   -4.7413   -6.8113   -2.6483 N   0  0  0  0  0  0
   -4.1245   -5.6958   -1.0051 H   0  0  0  0  0  0
   -3.1832   -5.3966   -2.4997 H   0  0  0  0  0  0
   -2.8847   -6.8757   -1.5342 H   0  0  0  0  0  0
   -5.2028   -6.0604   -3.1735 H   0  0  0  0  0  0
   -4.2188   -7.3618   -3.3386 H   0  0  0  0  0  0
  1  2  1  0  0  0
  1  3  1  0  0  0
  1  4  1  0  0  0
  1  5  1  0  0  0
  2  6  1  0  0  0
  2  7  1  0  0  0
  8  9  1  0  0  0
  8 10  1  0  0  0
  8 11  1  0  0  0
  8 12  1  0  0  0
  9 13  1  0  0  0
  9 14  1  0  0  0
M  END
$$$$
