


 14 12  0  0  1  0            999 V2000
    0.0000    0.0000    0.0000 C   0  0  0  0  0  0
   -0.8376    1.0267   -0.5224 N   0  0  0  0  0  0
    1.0454    0.0832   -0.3418 H   0  0  0  0  0  0
   -0.3941   -0.9826   -0.3094 H   0  0  0  0  0  0
   -0.0154    0.0542    1.1016 H   0  0  0  0  0  0
   -1.8361    0.8179   -0.4125 H   0  0  0  0  0  0
   -0.6518    1.8463    0.0663 H   0  0  0  0  0  0
   -0.3424   -0.1570   -3.9696 C   0  0  0  0  0  0
   -1.6470    0.0675   -3.3891 N   0  0  0  0  0  0
   -0.3515   -1.1889   -4.3593 H   0  0  0  0  0  0
    0.5062   -0.0515   -3.2730 H   0  0  0  0  0  0
   -0.1928    0.5366   -4.8140 H   0  0  0  0  0  0
   -1.6588   -0.4115   -2.4818 H   0  0  0  0  0  0
   -1.4519    1.0544   -3.1872 H   0  0  0  0  0  0
  1  2  1  0  0  0
  1  3  1  0  0  0
  1  4  1  0  0  0
  1  5  1  0  0  0
  2  6  1  0  0  0
  2  7  1  0  0  0
  8  9  1  0  0  0
  8 10  1  0  0  0
  8 11  1  0  0  0
  8 12  1  0  0  0
  9 13  1  0  0  0
  9 14  1  0  0  0
M  END
$$$$
