


 14 12  0  0  1  0            999 V2000
    0.1790   -1.0092   -5.5141 C   0  0  0  0  0  0
    0.7886   -0.6923   -4.2821 N   0  0  0  0  0  0
   -0.8011   -1.4957   -5.3754 H   0  0  0  0  0  0
    0.7338   -1.5526   -6.2974 H   0  0  0  0  0  0
    0.0126    0.0265   -5.8551 H   0  0  0  0  0  0
    0.2057   -0.1443   -3.6398 H   0  0  0  0  0  0
    0.8625   -1.6291   -3.8701 H   0  0  0  0  0  0
    3.9341    0.8196    4.3216 C   0  0  0  0  0  0
    2.5477    0.5905    4.0129 N   0  0  0  0  0  0
    4.7115    0.5226    3.5976 H   0  0  0  0  0  0
    4.1436    0.3254    5.2852 H   0  0  0  0  0  0
    3.9879    1.9116    4.4672 H   0  0  0  0  0  0
    2.4984   -0.3556    3.6190 H   0  0  0  0  0  0
    2.2294    1.2243    3.2715 H   0  0  0  0  0  0
  1  2  1  0  0  0
  1  3  1  0  0  0
  1  4  1  0  0  0
  1  5  1  0  0  0
  2  6  1  0  0  0
  2  7  1  0  0  0
  8  9  1  0  0  0
  8 10  1  0  0  0
  8 11  1  0  0  0
  8 12  1  0  0  0
  9 13  1  0  0  0
  9 14  1  0  0  0
M  END
$$$$
