


 14 12  0  0  1  0            999 V2000
    2.6004    4.1001   -0.0765 C   0  0  0  0  0  0
    1.6907    3.6248    0.9387 N   0  0  0  0  0  0
    3.4449    4.6446    0.3783 H   0  0  0  0  0  0
    2.0179    4.8056   -0.6926 H   0  0  0  0  0  0
    3.0034    3.3102   -0.7324 H   0  0  0  0  0  0
    1.6683    4.3253    1.6881 H   0  0  0  0  0  0
    0.7171    3.4928    0.6434 H   0  0  0  0  0  0
   -3.4836    1.7879   -3.3816 C   0  0  0  0  0  0
   -4.7440    1.2262   -3.9524 N   0  0  0  0  0  0
   -2.8249    0.9050   -3.4380 H   0  0  0  0  0  0
   -3.4469    2.1892   -2.3548 H   0  0  0  0  0  0
   -3.1012    2.5569   -4.0737 H   0  0  0  0  0  0
   -5.1091    0.4382   -3.4060 H   0  0  0  0  0  0
   -5.4210    1.9888   -3.8392 H   0  0  0  0  0  0
  1  2  1  0  0  0
  1  3  1  0  0  0
  1  4  1  0  0  0
  1  5  1  0  0  0
  2  6  1  0  0  0
  2  7  1  0  0  0
  8  9  1  0  0  0
  8 10  1  0  0  0
  8 11  1  0  0  0
  8 12  1  0  0  0
  9 13  1  0  0  0
  9 14  1  0  0  0
M  END
$$$$
