


 14 12  0  0  1  0            999 V2000
    6.0469   -7.6567   -8.8899 C   0  0  0  0  0  0
    6.0493   -9.0236   -8.4555 N   0  0  0  0  0  0
    5.9824   -6.8933   -8.0964 H   0  0  0  0  0  0
    5.2167   -7.4986   -9.5986 H   0  0  0  0  0  0
    6.9999   -7.5240   -9.4291 H   0  0  0  0  0  0
    5.0625   -9.2972   -8.3918 H   0  0  0  0  0  0
    6.4465   -9.1720   -7.5212 H   0  0  0  0  0  0
    9.0258  -10.5428   -8.6531 C   0  0  0  0  0  0
    8.5245  -11.7031   -7.9472 N   0  0  0  0  0  0
    9.4884  -10.8436   -9.6082 H   0  0  0  0  0  0
    9.8104  -10.1304   -7.9967 H   0  0  0  0  0  0
    8.2844   -9.7515   -8.8552 H   0  0  0  0  0  0
    8.2630  -11.2995   -7.0409 H   0  0  0  0  0  0
    7.6451  -11.9627   -8.4074 H   0  0  0  0  0  0
  1  2  1  0  0  0
  1  3  1  0  0  0
  1  4  1  0  0  0
  1  5  1  0  0  0
  2  6  1  0  0  0
  2  7  1  0  0  0
  8  9  1  0  0  0
  8 10  1  0  0  0
  8 11  1  0  0  0
  8 12  1  0  0  0
  9 13  1  0  0  0
  9 14  1  0  0  0
M  END
$$$$
