


 14 12  0  0  1  0            999 V2000
    0.0000    0.0000    0.0000 C   0  0  0  0  0  0
   -0.0992   -0.3279   -1.4206 N   0  0  0  0  0  0
    0.1083    1.0925    0.1063 H   0  0  0  0  0  0
    0.9184   -0.4826    0.3744 H   0  0  0  0  0  0
   -0.8496   -0.3314    0.6205 H   0  0  0  0  0  0
   -0.9476    0.1148   -1.7907 H   0  0  0  0  0  0
    0.6902    0.1554   -1.8632 H   0  0  0  0  0  0
   -5.1631   -3.6485    1.8484 C   0  0  0  0  0  0
   -6.2258   -4.6129    1.6484 N   0  0  0  0  0  0
   -4.6684   -3.9102    2.7989 H   0  0  0  0  0  0
   -5.5602   -2.6226    1.9293 H   0  0  0  0  0  0
   -4.4108   -3.6719    1.0421 H   0  0  0  0  0  0
   -6.8524   -4.2417    0.9256 H   0  0  0  0  0  0
   -5.7877   -5.4477    1.2437 H   0  0  0  0  0  0
  1  2  1  0  0  0
  1  3  1  0  0  0
  1  4  1  0  0  0
  1  5  1  0  0  0
  2  6  1  0  0  0
  2  7  1  0  0  0
  8  9  1  0  0  0
  8 10  1  0  0  0
  8 11  1  0  0  0
  8 12  1  0  0  0
  9 13  1  0  0  0
  9 14  1  0  0  0
M  END
$$$$
