


 17 15  0  0  1  0            999 V2000
    1.5692    0.2874    2.5531 C   0  0  0  0  0  0
    2.5296   -0.2271    3.5308 C   0  0  0  0  0  0
    3.3284   -0.6547    4.3434 C   0  0  0  0  0  0
    4.2895   -1.1688    5.3205 C   0  0  0  0  0  0
    1.5965   -0.3201    1.6329 H   0  0  0  0  0  0
    1.8100    1.3318    2.2924 H   0  0  0  0  0  0
    0.5470    0.2547    2.9662 H   0  0  0  0  0  0
    4.7892   -2.0706    4.9285 H   0  0  0  0  0  0
    5.0575   -0.4080    5.5394 H   0  0  0  0  0  0
    3.7764   -1.4316    6.2609 H   0  0  0  0  0  0
    1.6478    2.8936    1.7248 O   0  0  0  0  0  0
    0.5088    2.7072    1.2154 C   0  0  0  0  0  0
    0.0398    1.6605    0.6900 O   0  0  0  0  0  0
   -0.4601    3.9202    1.2755 C   0  0  0  0  0  0
   -1.0288    3.8700    2.2192 H   0  0  0  0  0  0
    0.0933    4.8740    1.2485 H   0  0  0  0  0  0
   -1.1728    3.9030    0.4338 H   0  0  0  0  0  0
  1  2  1  0  0  0
  2  3  3  0  0  0
  3  4  1  0  0  0
  1  5  1  0  0  0
  1  6  1  0  0  0
  1  7  1  0  0  0
  4  8  1  0  0  0
  4  9  1  0  0  0
  4 10  1  0  0  0
 11 12  1  0  0  0
 12 13  2  0  0  0
 12 14  1  0  0  0
 14 15  1  0  0  0
 14 16  1  0  0  0
 14 17  1  0  0  0
M  CHG  1  11  -1
M  END
$$$$
