


 21 20  0  0  1  0            999 V2000
   -0.0789    5.0223    1.0610 Br  0  0  0  0  0  0
    1.3534    3.9318    1.7727 C   0  0  0  0  0  0
    1.2283    3.8657    3.2714 C   0  0  0  0  0  0
    2.6605    2.7753    3.9831 Br  0  0  0  0  0  0
    1.2779    2.9342    1.2988 H   0  0  0  0  0  0
    2.3092    4.3868    1.4490 H   0  0  0  0  0  0
    1.3037    4.8633    3.7452 H   0  0  0  0  0  0
    0.2724    3.4108    3.5951 H   0  0  0  0  0  0
   -0.8396    0.1417    3.6373 O   0  0  0  0  0  0
   -0.5906    0.0941    2.2888 C   0  0  0  0  0  0
   -1.5234    0.7019    1.4478 C   0  0  0  0  0  0
   -1.3232    0.6850    0.0697 C   0  0  0  0  0  0
   -0.1981    0.0658   -0.4771 C   0  0  0  0  0  0
    0.7298   -0.5394    0.3688 C   0  0  0  0  0  0
    0.5370   -0.5272    1.7503 C   0  0  0  0  0  0
   -0.1044   -0.3231    4.1060 H   0  0  0  0  0  0
   -2.4035    1.1850    1.8925 H   0  0  0  0  0  0
   -2.0609    1.1650   -0.5869 H   0  0  0  0  0  0
   -0.0447    0.0552   -1.5643 H   0  0  0  0  0  0
    1.6196   -1.0304   -0.0470 H   0  0  0  0  0  0
    1.2689   -1.0044    2.4153 H   0  0  0  0  0  0
  1  2  1  0  0  0
  2  3  1  0  0  0
  3  4  1  0  0  0
  2  5  1  0  0  0
  2  6  1  0  0  0
  3  7  1  0  0  0
  3  8  1  0  0  0
  9 10  1  0  0  0
 10 11  2  0  0  0
 11 12  1  0  0  0
 12 13  2  0  0  0
 13 14  1  0  0  0
 14 15  2  0  0  0
 10 15  1  0  0  0
  9 16  1  0  0  0
 11 17  1  0  0  0
 12 18  1  0  0  0
 13 19  1  0  0  0
 14 20  1  0  0  0
 15 21  1  0  0  0
M  END
$$$$
