


  4  2  0  0  1  0            999 V2000
   -1.0273    4.3647    0.4005 O   0  0  0  0  0  0
   -1.7882    4.1765    0.9954 H   0  0  0  0  0  0
   -0.2483    3.9849    0.8664 H   0  0  0  0  0  0
    0.0000    0.0000    0.0000 Ne  0  0  0  0  0  0
  1  2  1  0  0  0
  1  3  1  0  0  0
M  END
$$$$
