


  4  2  0  0  1  0            999 V2000
    1.5613   -2.8909   -0.3907 O   0  0  0  0  0  0
    1.7246   -2.1158    0.1929 H   0  0  0  0  0  0
    0.5871   -2.8964   -0.5291 H   0  0  0  0  0  0
    0.0000    0.0000    0.0000 Ne  0  0  0  0  0  0
  1  2  1  0  0  0
  1  3  1  0  0  0
M  END
$$$$
