


  4  2  0  0  1  0            999 V2000
   -2.3628    0.0951   -2.0026 O   0  0  0  0  0  0
   -2.8507    0.8454   -2.4117 H   0  0  0  0  0  0
   -1.6419   -0.1092   -2.6404 H   0  0  0  0  0  0
    0.0000    0.0000    0.0000 Ne  0  0  0  0  0  0
  1  2  1  0  0  0
  1  3  1  0  0  0
M  END
$$$$
