


  4  2  0  0  1  0            999 V2000
   -5.1099    3.4341   -2.0781 O   0  0  0  0  0  0
   -4.3342    2.8377   -2.1814 H   0  0  0  0  0  0
   -5.2755    3.7846   -2.9825 H   0  0  0  0  0  0
    0.0000    0.0000    0.0000 Ne  0  0  0  0  0  0
  1  2  1  0  0  0
  1  3  1  0  0  0
M  END
$$$$
