


  4  2  0  0  1  0            999 V2000
   -3.4121   -2.2556   -1.0532 O   0  0  0  0  0  0
   -3.1309   -2.5891   -1.9352 H   0  0  0  0  0  0
   -2.9870   -2.8668   -0.4098 H   0  0  0  0  0  0
    0.0000    0.0000    0.0000 Ne  0  0  0  0  0  0
  1  2  1  0  0  0
  1  3  1  0  0  0
M  END
$$$$
