


  4  2  0  0  1  0            999 V2000
    0.4407    3.5884    0.3036 O   0  0  0  0  0  0
    1.2964    3.5241   -0.1779 H   0  0  0  0  0  0
    0.6131    4.2275    1.0316 H   0  0  0  0  0  0
    0.0000    0.0000    0.0000 Ne  0  0  0  0  0  0
  1  2  1  0  0  0
  1  3  1  0  0  0
M  END
$$$$
