


  4  2  0  0  1  0            999 V2000
   -4.2114    3.6089   -3.1983 O   0  0  0  0  0  0
   -4.2870    4.1389   -2.3726 H   0  0  0  0  0  0
   -4.0138    2.6957   -2.8896 H   0  0  0  0  0  0
    0.0000    0.0000    0.0000 Ne  0  0  0  0  0  0
  1  2  1  0  0  0
  1  3  1  0  0  0
M  END
$$$$
