


  4  2  0  0  1  0            999 V2000
   -3.0349   -0.4862    0.7658 O   0  0  0  0  0  0
   -2.5491   -0.1415    1.5491 H   0  0  0  0  0  0
   -3.1975    0.3067    0.2062 H   0  0  0  0  0  0
   -0.9573   -0.1242    0.2609 Ne  0  0  0  0  0  0
  1  2  1  0  0  0
  1  3  1  0  0  0
M  END
$$$$
