


 19 18  0  0  1  0            999 V2000
    0.4807    1.2259    3.4297 C   0  0  0  0  0  0
    1.8791    1.5772    2.9416 C   0  0  0  0  0  0
    2.9046    0.1227    2.5630 S   0  0  0  0  0  0
   -0.0433    0.6072    2.6818 H   0  0  0  0  0  0
   -0.1054    2.1448    3.5990 H   0  0  0  0  0  0
    0.5341    0.6631    4.3767 H   0  0  0  0  0  0
    1.8318    2.1312    1.9844 H   0  0  0  0  0  0
    2.4115    2.2148    3.6735 H   0  0  0  0  0  0
    2.8895   -0.3978    3.8085 H   0  0  0  0  0  0
    2.5516    2.6734   -0.9069 C   0  0  0  0  0  0
    1.4506    3.5088   -0.8313 C   0  0  0  0  0  0
    0.3002    2.6876   -0.7195 C   0  0  0  0  0  0
    0.7269    1.3709   -0.7296 C   0  0  0  0  0  0
    2.0925    1.3838   -0.8436 N   0  0  0  0  0  0
    2.6844    0.5501   -0.8768 H   0  0  0  0  0  0
    3.6157    2.8905   -0.9998 H   0  0  0  0  0  0
    1.4807    4.5981   -0.8549 H   0  0  0  0  0  0
   -0.7362    3.0156   -0.6395 H   0  0  0  0  0  0
    0.1740    0.4338   -0.6653 H   0  0  0  0  0  0
  1  2  1  0  0  0
  2  3  1  0  0  0
  1  4  1  0  0  0
  1  5  1  0  0  0
  1  6  1  0  0  0
  2  7  1  0  0  0
  2  8  1  0  0  0
  3  9  1  0  0  0
 10 11  2  0  0  0
 11 12  1  0  0  0
 12 13  2  0  0  0
 13 14  1  0  0  0
 14 15  1  0  0  0
 10 14  1  0  0  0
 10 16  1  0  0  0
 11 17  1  0  0  0
 12 18  1  0  0  0
 13 19  1  0  0  0
M  END
$$$$
