


 12 10  0  0  1  0            999 V2000
    0.0000    0.0000    0.0000 C   0  0  0  0  0  0
   -0.4035   -1.3398   -1.1039 S   0  0  0  0  0  0
    0.9734   -0.1849    0.4847 H   0  0  0  0  0  0
   -0.7339    0.2723    0.7771 H   0  0  0  0  0  0
    0.1086    0.8499   -0.6946 H   0  0  0  0  0  0
    0.8605   -1.7027   -1.4094 H   0  0  0  0  0  0
    5.0166    3.4911   -0.2424 C   0  0  0  0  0  0
    6.0831    4.5605   -1.2047 S   0  0  0  0  0  0
    4.4441    2.8238   -0.9084 H   0  0  0  0  0  0
    4.3069    4.1259    0.3144 H   0  0  0  0  0  0
    5.5761    2.8724    0.4793 H   0  0  0  0  0  0
    6.7305    5.3094   -0.2869 H   0  0  0  0  0  0
  1  2  1  0  0  0
  1  3  1  0  0  0
  1  4  1  0  0  0
  1  5  1  0  0  0
  2  6  1  0  0  0
  7  8  1  0  0  0
  7  9  1  0  0  0
  7 10  1  0  0  0
  7 11  1  0  0  0
  8 12  1  0  0  0
M  END
$$$$
