


 12 10  0  0  1  0            999 V2000
   -4.5254    0.7574   -0.4491 C   0  0  0  0  0  0
   -3.4573    1.1021    0.9597 S   0  0  0  0  0  0
   -4.1537   -0.2014   -0.8482 H   0  0  0  0  0  0
   -4.3318    1.5473   -1.1942 H   0  0  0  0  0  0
   -5.6149    0.6765   -0.2972 H   0  0  0  0  0  0
   -4.3374    2.0529    1.3391 H   0  0  0  0  0  0
   -3.0273   -2.4276   -3.2696 C   0  0  0  0  0  0
   -4.1285   -3.5052   -2.2750 S   0  0  0  0  0  0
   -2.8659   -1.5422   -2.6320 H   0  0  0  0  0  0
   -3.4864   -2.0996   -4.2174 H   0  0  0  0  0  0
   -2.0482   -2.8839   -3.4925 H   0  0  0  0  0  0
   -4.2519   -4.3753   -3.2998 H   0  0  0  0  0  0
  1  2  1  0  0  0
  1  3  1  0  0  0
  1  4  1  0  0  0
  1  5  1  0  0  0
  2  6  1  0  0  0
  7  8  1  0  0  0
  7  9  1  0  0  0
  7 10  1  0  0  0
  7 11  1  0  0  0
  8 12  1  0  0  0
M  END
$$$$
