


 12 10  0  0  1  0            999 V2000
  -14.5953    2.6757    4.0539 C   0  0  0  0  0  0
  -16.3011    2.0596    3.8990 S   0  0  0  0  0  0
  -13.8611    1.8567    3.9718 H   0  0  0  0  0  0
  -14.5277    3.1087    5.0661 H   0  0  0  0  0  0
  -14.3352    3.4562    3.3192 H   0  0  0  0  0  0
  -16.0160    1.1485    2.9446 H   0  0  0  0  0  0
   -7.6092    0.5878    1.2026 C   0  0  0  0  0  0
   -7.0240    1.5974    2.5334 S   0  0  0  0  0  0
   -7.4880    1.1160    0.2419 H   0  0  0  0  0  0
   -8.6579    0.2579    1.2928 H   0  0  0  0  0  0
   -6.9592   -0.3034    1.1985 H   0  0  0  0  0  0
   -6.0624    0.7043    2.8501 H   0  0  0  0  0  0
  1  2  1  0  0  0
  1  3  1  0  0  0
  1  4  1  0  0  0
  1  5  1  0  0  0
  2  6  1  0  0  0
  7  8  1  0  0  0
  7  9  1  0  0  0
  7 10  1  0  0  0
  7 11  1  0  0  0
  8 12  1  0  0  0
M  END
$$$$
