


 12 10  0  0  1  0            999 V2000
   -1.0294   -1.7384   -4.0384 C   0  0  0  0  0  0
   -1.8891   -2.5099   -5.4829 S   0  0  0  0  0  0
   -1.6966   -0.8869   -3.8230 H   0  0  0  0  0  0
    0.0097   -1.3704   -4.0759 H   0  0  0  0  0  0
   -1.1145   -2.4688   -3.2163 H   0  0  0  0  0  0
   -1.8010   -3.8280   -5.2046 H   0  0  0  0  0  0
   -1.5622   -2.4002    3.4857 C   0  0  0  0  0  0
   -1.3586   -4.0171    2.5214 S   0  0  0  0  0  0
   -0.5735   -2.1382    3.8984 H   0  0  0  0  0  0
   -2.2825   -2.4736    4.3178 H   0  0  0  0  0  0
   -1.8869   -1.5913    2.8097 H   0  0  0  0  0  0
   -2.6726   -4.1670    2.2505 H   0  0  0  0  0  0
  1  2  1  0  0  0
  1  3  1  0  0  0
  1  4  1  0  0  0
  1  5  1  0  0  0
  2  6  1  0  0  0
  7  8  1  0  0  0
  7  9  1  0  0  0
  7 10  1  0  0  0
  7 11  1  0  0  0
  8 12  1  0  0  0
M  END
$$$$
