


 12 10  0  0  1  0            999 V2000
   -1.5622   -2.4002    3.4857 C   0  0  0  0  0  0
   -1.3586   -4.0171    2.5214 S   0  0  0  0  0  0
   -0.5735   -2.1382    3.8984 H   0  0  0  0  0  0
   -2.2825   -2.4736    4.3178 H   0  0  0  0  0  0
   -1.8869   -1.5913    2.8097 H   0  0  0  0  0  0
   -2.6726   -4.1670    2.2505 H   0  0  0  0  0  0
   -0.4106    4.7663   -2.9332 C   0  0  0  0  0  0
   -0.2812    5.2980   -4.6468 S   0  0  0  0  0  0
    0.1269    3.8226   -2.7399 H   0  0  0  0  0  0
   -1.4760    4.6210   -2.6873 H   0  0  0  0  0  0
    0.0001    5.5470   -2.2711 H   0  0  0  0  0  0
   -1.3081    6.1624   -4.7904 H   0  0  0  0  0  0
  1  2  1  0  0  0
  1  3  1  0  0  0
  1  4  1  0  0  0
  1  5  1  0  0  0
  2  6  1  0  0  0
  7  8  1  0  0  0
  7  9  1  0  0  0
  7 10  1  0  0  0
  7 11  1  0  0  0
  8 12  1  0  0  0
M  END
$$$$
