


 12 10  0  0  1  0            999 V2000
   -0.4106    4.7663   -2.9332 C   0  0  0  0  0  0
   -0.2812    5.2980   -4.6468 S   0  0  0  0  0  0
    0.1269    3.8226   -2.7399 H   0  0  0  0  0  0
   -1.4760    4.6210   -2.6873 H   0  0  0  0  0  0
    0.0001    5.5470   -2.2711 H   0  0  0  0  0  0
   -1.3081    6.1624   -4.7904 H   0  0  0  0  0  0
   -4.4161    2.1277    4.0219 C   0  0  0  0  0  0
   -3.1041    1.4271    5.0259 S   0  0  0  0  0  0
   -4.0967    2.7384    3.1606 H   0  0  0  0  0  0
   -5.0309    2.7549    4.6892 H   0  0  0  0  0  0
   -5.0368    1.2946    3.6515 H   0  0  0  0  0  0
   -2.5168    0.8403    3.9613 H   0  0  0  0  0  0
  1  2  1  0  0  0
  1  3  1  0  0  0
  1  4  1  0  0  0
  1  5  1  0  0  0
  2  6  1  0  0  0
  7  8  1  0  0  0
  7  9  1  0  0  0
  7 10  1  0  0  0
  7 11  1  0  0  0
  8 12  1  0  0  0
M  END
$$$$
