


 19 17  0  0  1  0            999 V2000
    0.0000    0.0000    0.0000 C   0  0  0  0  0  0
    1.0524   -0.9836    0.5444 C   0  0  0  0  0  0
    0.2401   -2.4848    1.2069 S   0  0  0  0  0  0
    1.5540   -2.9606    2.6214 S   0  0  0  0  0  0
    2.7144   -4.2172    1.9233 C   0  0  0  0  0  0
    2.9139   -4.0552    0.3727 C   0  0  0  0  0  0
   -0.5590    0.4536    0.8357 H   0  0  0  0  0  0
   -0.7110   -0.5427   -0.6454 H   0  0  0  0  0  0
    0.4660    0.8067   -0.5905 H   0  0  0  0  0  0
    1.7467   -1.3190   -0.2499 H   0  0  0  0  0  0
    1.6530   -0.4791    1.3255 H   0  0  0  0  0  0
    3.7230   -4.1199    2.3692 H   0  0  0  0  0  0
    2.3613   -5.2494    2.1117 H   0  0  0  0  0  0
    3.6748   -4.8062    0.1012 H   0  0  0  0  0  0
    3.2222   -3.0783   -0.0361 H   0  0  0  0  0  0
    1.9548   -4.3432   -0.0896 H   0  0  0  0  0  0
    4.7708    0.8139    0.7466 O   0  0  0  0  0  0
    5.0393    0.0686    1.3303 H   0  0  0  0  0  0
    5.3680    1.5541    0.9990 H   0  0  0  0  0  0
  1  2  1  0  0  0
  2  3  1  0  0  0
  3  4  1  0  0  0
  4  5  1  0  0  0
  5  6  1  0  0  0
  1  7  1  0  0  0
  1  8  1  0  0  0
  1  9  1  0  0  0
  2 10  1  0  0  0
  2 11  1  0  0  0
  5 12  1  0  0  0
  5 13  1  0  0  0
  6 14  1  0  0  0
  6 15  1  0  0  0
  6 16  1  0  0  0
 17 18  1  0  0  0
 17 19  1  0  0  0
M  END
$$$$
