


 32 30  0  0  1  0            999 V2000
    1.1012    4.0114    2.8930 C   0  0  0  0  0  0
    0.9650    2.6053    3.4295 C   0  0  0  0  0  0
   -0.1229    1.8263    3.2489 C   0  0  0  0  0  0
   -0.2391    0.4025    3.7417 C   0  0  0  0  0  0
   -1.3752    2.2701    2.5291 C   0  0  0  0  0  0
    2.1974    2.1793    4.1931 C   0  0  0  0  0  0
    0.2980    4.2827    2.1873 H   0  0  0  0  0  0
    2.0700    4.0947    2.3723 H   0  0  0  0  0  0
    1.0897    4.7279    3.7315 H   0  0  0  0  0  0
   -0.9808    0.3546    4.5567 H   0  0  0  0  0  0
   -0.5911   -0.2284    2.9082 H   0  0  0  0  0  0
    0.7169   -0.0045    4.1117 H   0  0  0  0  0  0
   -1.3887    3.3521    2.3156 H   0  0  0  0  0  0
   -1.4655    1.7222    1.5760 H   0  0  0  0  0  0
   -2.2465    2.0250    3.1596 H   0  0  0  0  0  0
    3.0408    2.0585    3.4926 H   0  0  0  0  0  0
    2.4518    2.9718    4.9168 H   0  0  0  0  0  0
    2.0579    1.2329    4.7423 H   0  0  0  0  0  0
    0.8682    1.6972   -1.5433 C   0  0  0  0  0  0
    1.4713    0.5105   -0.7924 C   0  0  0  0  0  0
    2.8772    0.8007   -0.2719 C   0  0  0  0  0  0
    3.4803   -0.3860    0.4790 C   0  0  0  0  0  0
   -0.1455    1.4588   -1.9069 H   0  0  0  0  0  0
    1.5003    1.9575   -2.4089 H   0  0  0  0  0  0
    0.8058    2.5739   -0.8769 H   0  0  0  0  0  0
    0.8213    0.2472    0.0641 H   0  0  0  0  0  0
    1.5143   -0.3679   -1.4648 H   0  0  0  0  0  0
    3.5273    1.0639   -1.1284 H   0  0  0  0  0  0
    2.8342    1.6791    0.4005 H   0  0  0  0  0  0
    3.5427   -1.2628   -0.1874 H   0  0  0  0  0  0
    2.8482   -0.6464    1.3446 H   0  0  0  0  0  0
    4.4940   -0.1476    0.8426 H   0  0  0  0  0  0
  1  2  1  0  0  0
  2  3  2  0  0  0
  3  4  1  0  0  0
  3  5  1  0  0  0
  2  6  1  0  0  0
  1  7  1  0  0  0
  1  8  1  0  0  0
  1  9  1  0  0  0
  4 10  1  0  0  0
  4 11  1  0  0  0
  4 12  1  0  0  0
  5 13  1  0  0  0
  5 14  1  0  0  0
  5 15  1  0  0  0
  6 16  1  0  0  0
  6 17  1  0  0  0
  6 18  1  0  0  0
 19 20  1  0  0  0
 20 21  1  0  0  0
 21 22  1  0  0  0
 19 23  1  0  0  0
 19 24  1  0  0  0
 19 25  1  0  0  0
 20 26  1  0  0  0
 20 27  1  0  0  0
 21 28  1  0  0  0
 21 29  1  0  0  0
 22 30  1  0  0  0
 22 31  1  0  0  0
 22 32  1  0  0  0
M  END
$$$$
