


 21 20  0  0  1  0            999 V2000
    3.5834    1.8065    0.3483 C   0  0  0  0  0  0
    2.2485    2.5266    0.2185 C   0  0  0  0  0  0
    2.0116    3.8473    1.4474 S   0  0  0  0  0  0
    4.4170    2.5238    0.2635 H   0  0  0  0  0  0
    3.6872    1.0507   -0.4483 H   0  0  0  0  0  0
    3.6535    1.2997    1.3255 H   0  0  0  0  0  0
    2.1782    3.0478   -0.7556 H   0  0  0  0  0  0
    1.4015    1.8167    0.2823 H   0  0  0  0  0  0
    2.0850    3.0522    2.5359 H   0  0  0  0  0  0
   -0.1253    1.2550    2.1133 C   0  0  0  0  0  0
    1.2456    0.7691    2.4508 C   0  0  0  0  0  0
    1.8898   -0.3678    2.0057 C   0  0  0  0  0  0
    3.1237   -0.3528    2.6100 N   0  0  0  0  0  0
    3.8609   -1.0534    2.4996 H   0  0  0  0  0  0
    3.1870    0.7663    3.3840 C   0  0  0  0  0  0
    2.0667    1.4668    3.3098 N   0  0  0  0  0  0
   -0.6186    0.5595    1.4136 H   0  0  0  0  0  0
   -0.0728    2.2505    1.6413 H   0  0  0  0  0  0
   -0.7399    1.3304    3.0261 H   0  0  0  0  0  0
    1.5833   -1.1650    1.3284 H   0  0  0  0  0  0
    4.0659    1.0207    3.9763 H   0  0  0  0  0  0
  1  2  1  0  0  0
  2  3  1  0  0  0
  1  4  1  0  0  0
  1  5  1  0  0  0
  1  6  1  0  0  0
  2  7  1  0  0  0
  2  8  1  0  0  0
  3  9  1  0  0  0
 10 11  1  0  0  0
 11 12  2  0  0  0
 12 13  1  0  0  0
 13 14  1  0  0  0
 13 15  1  0  0  0
 15 16  2  0  0  0
 11 16  1  0  0  0
 10 17  1  0  0  0
 10 18  1  0  0  0
 10 19  1  0  0  0
 12 20  1  0  0  0
 15 21  1  0  0  0
M  END
$$$$
