


 16 14  0  0  1  0            999 V2000
    3.5411    0.5287    2.3130 C   0  0  0  0  0  0
    2.2507    0.8824    2.7696 O   0  0  0  0  0  0
    1.2911   -0.0525    2.3180 C   0  0  0  0  0  0
    4.2496    1.2852    2.6902 H   0  0  0  0  0  0
    3.5931    0.5163    1.2113 H   0  0  0  0  0  0
    3.8488   -0.4608    2.6909 H   0  0  0  0  0  0
    1.2470   -0.0896    1.2165 H   0  0  0  0  0  0
    1.5027   -1.0668    2.6960 H   0  0  0  0  0  0
    0.3064    0.2667    2.6989 H   0  0  0  0  0  0
    3.6992    5.7164   -3.7018 C   0  0  0  0  0  0
    2.0051    5.1122   -3.5702 S   0  0  0  0  0  0
    1.2881    6.2005   -1.9895 S   0  0  0  0  0  0
    4.1482    5.2408   -4.5900 H   0  0  0  0  0  0
    4.3026    5.4506   -2.8176 H   0  0  0  0  0  0
    3.7322    6.8109   -3.8342 H   0  0  0  0  0  0
    1.6746    5.3808   -0.9889 H   0  0  0  0  0  0
  1  2  1  0  0  0
  2  3  1  0  0  0
  1  4  1  0  0  0
  1  5  1  0  0  0
  1  6  1  0  0  0
  3  7  1  0  0  0
  3  8  1  0  0  0
  3  9  1  0  0  0
 10 11  1  0  0  0
 11 12  1  0  0  0
 10 13  1  0  0  0
 10 14  1  0  0  0
 10 15  1  0  0  0
 12 16  1  0  0  0
M  END
$$$$
