


 16 14  0  0  1  0            999 V2000
   -2.3286    4.3385   -0.6292 C   0  0  0  0  0  0
   -3.6427    3.5592   -0.8096 C   0  0  0  0  0  0
   -2.3484    5.3254   -1.1214 H   0  0  0  0  0  0
   -1.4930    3.7531   -1.0483 H   0  0  0  0  0  0
   -2.1484    4.4866    0.4489 H   0  0  0  0  0  0
   -3.8415    3.3688   -1.8777 H   0  0  0  0  0  0
   -4.4689    4.1648   -0.4005 H   0  0  0  0  0  0
   -3.6185    2.5927   -0.2785 H   0  0  0  0  0  0
    4.6981   -0.5616   -1.7071 C   0  0  0  0  0  0
    3.4727    0.0892   -2.4143 C   0  0  0  0  0  0
    5.6442   -0.1722   -2.1193 H   0  0  0  0  0  0
    4.6773   -1.6555   -1.8470 H   0  0  0  0  0  0
    4.6695   -0.3445   -0.6261 H   0  0  0  0  0  0
    3.5044    1.1536   -2.1265 H   0  0  0  0  0  0
    2.5059   -0.3335   -2.0930 H   0  0  0  0  0  0
    3.5393    0.0198   -3.5131 H   0  0  0  0  0  0
  1  2  1  0  0  0
  1  3  1  0  0  0
  1  4  1  0  0  0
  1  5  1  0  0  0
  2  6  1  0  0  0
  2  7  1  0  0  0
  2  8  1  0  0  0
  9 10  1  0  0  0
  9 11  1  0  0  0
  9 12  1  0  0  0
  9 13  1  0  0  0
 10 14  1  0  0  0
 10 15  1  0  0  0
 10 16  1  0  0  0
M  END
$$$$
