


 16 14  0  0  1  0            999 V2000
   -0.5348   -1.5896    3.3375 C   0  0  0  0  0  0
    0.7776   -0.9958    3.7708 C   0  0  0  0  0  0
   -1.1536   -0.9416    2.6943 H   0  0  0  0  0  0
   -1.1138   -1.8446    4.2410 H   0  0  0  0  0  0
   -0.3113   -2.5199    2.7886 H   0  0  0  0  0  0
    1.2839   -1.6546    4.4962 H   0  0  0  0  0  0
    0.5937   -0.0198    4.2506 H   0  0  0  0  0  0
    1.4470   -0.8429    2.9076 H   0  0  0  0  0  0
   -0.7153    1.2779   -4.9192 C   0  0  0  0  0  0
   -1.1214    1.8075   -6.2571 C   0  0  0  0  0  0
   -1.4581    1.5398   -4.1470 H   0  0  0  0  0  0
    0.2545    1.7226   -4.6398 H   0  0  0  0  0  0
   -0.6052    0.1806   -4.9437 H   0  0  0  0  0  0
   -1.3292    2.8893   -6.1999 H   0  0  0  0  0  0
   -2.0402    1.2893   -6.5792 H   0  0  0  0  0  0
   -0.3383    1.6393   -7.0155 H   0  0  0  0  0  0
  1  2  1  0  0  0
  1  3  1  0  0  0
  1  4  1  0  0  0
  1  5  1  0  0  0
  2  6  1  0  0  0
  2  7  1  0  0  0
  2  8  1  0  0  0
  9 10  1  0  0  0
  9 11  1  0  0  0
  9 12  1  0  0  0
  9 13  1  0  0  0
 10 14  1  0  0  0
 10 15  1  0  0  0
 10 16  1  0  0  0
M  END
$$$$
