


 16 14  0  0  1  0            999 V2000
   -3.5955  -10.7483   -0.0324 C   0  0  0  0  0  0
   -2.0867  -11.1550   -0.2657 C   0  0  0  0  0  0
   -3.7088   -9.6513   -0.0122 H   0  0  0  0  0  0
   -3.9062  -11.1521    0.9459 H   0  0  0  0  0  0
   -4.2630  -11.1567   -0.8097 H   0  0  0  0  0  0
   -1.7344  -10.8128   -1.2533 H   0  0  0  0  0  0
   -2.0317  -12.2561   -0.2346 H   0  0  0  0  0  0
   -1.4148  -10.7472    0.5082 H   0  0  0  0  0  0
   -4.7419   -6.7813   -1.6930 C   0  0  0  0  0  0
   -4.9096   -8.2359   -1.8408 C   0  0  0  0  0  0
   -3.6852   -6.5061   -1.5371 H   0  0  0  0  0  0
   -5.3313   -6.4138   -0.8362 H   0  0  0  0  0  0
   -5.1037   -6.2834   -2.6083 H   0  0  0  0  0  0
   -4.7020   -8.4744   -2.8975 H   0  0  0  0  0  0
   -5.8553   -8.7233   -1.5494 H   0  0  0  0  0  0
   -4.0958   -8.6480   -1.2207 H   0  0  0  0  0  0
  1  2  1  0  0  0
  1  3  1  0  0  0
  1  4  1  0  0  0
  1  5  1  0  0  0
  2  6  1  0  0  0
  2  7  1  0  0  0
  2  8  1  0  0  0
  9 10  1  0  0  0
  9 11  1  0  0  0
  9 12  1  0  0  0
  9 13  1  0  0  0
 10 14  1  0  0  0
 10 15  1  0  0  0
 10 16  1  0  0  0
M  END
$$$$
