


 16 14  0  0  1  0            999 V2000
   14.7883    4.2989    3.0860 C   0  0  0  0  0  0
   15.9799    4.6699    3.9583 C   0  0  0  0  0  0
   14.7249    4.9173    2.1748 H   0  0  0  0  0  0
   13.8350    4.3820    3.6346 H   0  0  0  0  0  0
   14.9321    3.2468    2.7878 H   0  0  0  0  0  0
   15.9513    5.7059    4.3358 H   0  0  0  0  0  0
   16.8889    4.5434    3.3465 H   0  0  0  0  0  0
   16.0371    3.9831    4.8195 H   0  0  0  0  0  0
   16.4290    6.4292    5.8723 C   0  0  0  0  0  0
   17.2383    6.5086    7.2147 C   0  0  0  0  0  0
   15.4469    5.9698    6.0747 H   0  0  0  0  0  0
   16.9909    5.7712    5.1881 H   0  0  0  0  0  0
   16.2675    7.3996    5.3735 H   0  0  0  0  0  0
   17.5285    5.4686    7.4403 H   0  0  0  0  0  0
   16.6219    6.8901    8.0460 H   0  0  0  0  0  0
   18.1526    7.1216    7.1444 H   0  0  0  0  0  0
  1  2  1  0  0  0
  1  3  1  0  0  0
  1  4  1  0  0  0
  1  5  1  0  0  0
  2  6  1  0  0  0
  2  7  1  0  0  0
  2  8  1  0  0  0
  9 10  1  0  0  0
  9 11  1  0  0  0
  9 12  1  0  0  0
  9 13  1  0  0  0
 10 14  1  0  0  0
 10 15  1  0  0  0
 10 16  1  0  0  0
M  END
$$$$
