


 16 14  0  0  1  0            999 V2000
    5.2614    4.5466    7.4755 C   0  0  0  0  0  0
    6.7665    4.5184    7.0549 C   0  0  0  0  0  0
    4.8534    3.6964    8.0475 H   0  0  0  0  0  0
    4.6094    4.7302    6.6050 H   0  0  0  0  0  0
    5.2492    5.4421    8.1193 H   0  0  0  0  0  0
    7.0152    5.4895    6.5948 H   0  0  0  0  0  0
    6.9728    3.7193    6.3232 H   0  0  0  0  0  0
    7.4172    4.3681    7.9328 H   0  0  0  0  0  0
    6.4276    7.5288    9.9430 C   0  0  0  0  0  0
    6.4695    7.1401    8.4764 C   0  0  0  0  0  0
    6.7105    6.6215   10.5027 H   0  0  0  0  0  0
    5.4015    7.8138   10.2304 H   0  0  0  0  0  0
    7.1123    8.3455   10.2274 H   0  0  0  0  0  0
    6.3527    8.0679    7.8915 H   0  0  0  0  0  0
    5.6190    6.4742    8.2534 H   0  0  0  0  0  0
    7.4004    6.6399    8.1604 H   0  0  0  0  0  0
  1  2  1  0  0  0
  1  3  1  0  0  0
  1  4  1  0  0  0
  1  5  1  0  0  0
  2  6  1  0  0  0
  2  7  1  0  0  0
  2  8  1  0  0  0
  9 10  1  0  0  0
  9 11  1  0  0  0
  9 12  1  0  0  0
  9 13  1  0  0  0
 10 14  1  0  0  0
 10 15  1  0  0  0
 10 16  1  0  0  0
M  END
$$$$
