


 16 14  0  0  1  0            999 V2000
   -0.3524    1.8113   -5.9954 C   0  0  0  0  0  0
   -1.6236    2.6088   -6.1335 C   0  0  0  0  0  0
   -0.3562    0.9195   -6.6445 H   0  0  0  0  0  0
   -0.2400    1.4837   -4.9482 H   0  0  0  0  0  0
    0.5152    2.4376   -6.2632 H   0  0  0  0  0  0
   -2.4302    2.0014   -5.6897 H   0  0  0  0  0  0
   -1.8714    2.8046   -7.1904 H   0  0  0  0  0  0
   -1.5744    3.5726   -5.5994 H   0  0  0  0  0  0
    4.6113   -0.4450    1.5739 C   0  0  0  0  0  0
    5.8443   -1.2309    1.1661 C   0  0  0  0  0  0
    3.9037   -0.3401    0.7343 H   0  0  0  0  0  0
    4.8769    0.5617    1.9380 H   0  0  0  0  0  0
    4.1105   -0.9933    2.3896 H   0  0  0  0  0  0
    6.4232   -1.3867    2.0919 H   0  0  0  0  0  0
    6.4434   -0.6129    0.4764 H   0  0  0  0  0  0
    5.6649   -2.2115    0.6941 H   0  0  0  0  0  0
  1  2  1  0  0  0
  1  3  1  0  0  0
  1  4  1  0  0  0
  1  5  1  0  0  0
  2  6  1  0  0  0
  2  7  1  0  0  0
  2  8  1  0  0  0
  9 10  1  0  0  0
  9 11  1  0  0  0
  9 12  1  0  0  0
  9 13  1  0  0  0
 10 14  1  0  0  0
 10 15  1  0  0  0
 10 16  1  0  0  0
M  END
$$$$
