


 16 14  0  0  1  0            999 V2000
   -3.6981   -0.1809   -3.4670 C   0  0  0  0  0  0
   -4.2871    0.8533   -2.5258 C   0  0  0  0  0  0
   -3.4404    0.1999   -4.4696 H   0  0  0  0  0  0
   -4.3780   -1.0418   -3.5818 H   0  0  0  0  0  0
   -2.7740   -0.5258   -2.9734 H   0  0  0  0  0  0
   -5.2668    1.1827   -2.9109 H   0  0  0  0  0  0
   -3.6232    1.7314   -2.4559 H   0  0  0  0  0  0
   -4.4285    0.4378   -1.5139 H   0  0  0  0  0  0
    4.6113   -0.4450    1.5739 C   0  0  0  0  0  0
    5.8443   -1.2309    1.1661 C   0  0  0  0  0  0
    3.9037   -0.3401    0.7343 H   0  0  0  0  0  0
    4.8769    0.5617    1.9380 H   0  0  0  0  0  0
    4.1105   -0.9933    2.3896 H   0  0  0  0  0  0
    6.4232   -1.3867    2.0919 H   0  0  0  0  0  0
    6.4434   -0.6129    0.4764 H   0  0  0  0  0  0
    5.6649   -2.2115    0.6941 H   0  0  0  0  0  0
  1  2  1  0  0  0
  1  3  1  0  0  0
  1  4  1  0  0  0
  1  5  1  0  0  0
  2  6  1  0  0  0
  2  7  1  0  0  0
  2  8  1  0  0  0
  9 10  1  0  0  0
  9 11  1  0  0  0
  9 12  1  0  0  0
  9 13  1  0  0  0
 10 14  1  0  0  0
 10 15  1  0  0  0
 10 16  1  0  0  0
M  END
$$$$
