


 16 14  0  0  1  0            999 V2000
   -2.5948   -4.4682    1.9979 C   0  0  0  0  0  0
   -1.7176   -3.3296    1.4388 C   0  0  0  0  0  0
   -1.9905   -5.3075    2.3814 H   0  0  0  0  0  0
   -3.2612   -4.8478    1.2052 H   0  0  0  0  0  0
   -3.2152   -4.0763    2.8213 H   0  0  0  0  0  0
   -1.1827   -3.7996    0.5964 H   0  0  0  0  0  0
   -0.9742   -2.9112    2.1380 H   0  0  0  0  0  0
   -2.3354   -2.5043    1.0467 H   0  0  0  0  0  0
    0.6265   -6.3400   -3.1865 C   0  0  0  0  0  0
    0.5789   -5.2088   -2.1040 C   0  0  0  0  0  0
    1.0234   -5.9576   -4.1419 H   0  0  0  0  0  0
   -0.3687   -6.7790   -3.3694 H   0  0  0  0  0  0
    1.2988   -7.1333   -2.8186 H   0  0  0  0  0  0
   -0.0601   -5.5453   -1.2704 H   0  0  0  0  0  0
    0.1629   -4.2714   -2.5100 H   0  0  0  0  0  0
    1.5896   -5.0046   -1.7124 H   0  0  0  0  0  0
  1  2  1  0  0  0
  1  3  1  0  0  0
  1  4  1  0  0  0
  1  5  1  0  0  0
  2  6  1  0  0  0
  2  7  1  0  0  0
  2  8  1  0  0  0
  9 10  1  0  0  0
  9 11  1  0  0  0
  9 12  1  0  0  0
  9 13  1  0  0  0
 10 14  1  0  0  0
 10 15  1  0  0  0
 10 16  1  0  0  0
M  END
$$$$
