


 16 14  0  0  1  0            999 V2000
   -1.0290    2.8710    3.1570 C   0  0  0  0  0  0
   -0.1665    1.5889    3.4734 C   0  0  0  0  0  0
   -2.0334    2.8473    3.6122 H   0  0  0  0  0  0
   -1.1394    3.0039    2.0677 H   0  0  0  0  0  0
   -0.4790    3.7365    3.5631 H   0  0  0  0  0  0
    0.8978    1.7677    3.2457 H   0  0  0  0  0  0
   -0.4991    0.6943    2.9205 H   0  0  0  0  0  0
   -0.2669    1.3921    4.5541 H   0  0  0  0  0  0
    3.4632   -2.3394    4.7301 C   0  0  0  0  0  0
    2.5831   -1.1786    4.3342 C   0  0  0  0  0  0
    4.4156   -1.8727    5.0329 H   0  0  0  0  0  0
    3.6569   -3.0144    3.8796 H   0  0  0  0  0  0
    3.0807   -2.9377    5.5741 H   0  0  0  0  0  0
    2.5870   -0.3871    5.1024 H   0  0  0  0  0  0
    1.5515   -1.5514    4.2184 H   0  0  0  0  0  0
    2.9085   -0.7403    3.3758 H   0  0  0  0  0  0
  1  2  1  0  0  0
  1  3  1  0  0  0
  1  4  1  0  0  0
  1  5  1  0  0  0
  2  6  1  0  0  0
  2  7  1  0  0  0
  2  8  1  0  0  0
  9 10  1  0  0  0
  9 11  1  0  0  0
  9 12  1  0  0  0
  9 13  1  0  0  0
 10 14  1  0  0  0
 10 15  1  0  0  0
 10 16  1  0  0  0
M  END
$$$$
