


 27 26  0  0  1  0            999 V2000
    2.3556    0.2675    1.4214 C   0  0  0  0  0  0
    3.6028    0.8138    2.1155 C   0  0  0  0  0  0
    3.4894    2.3025    2.4359 C   0  0  0  0  0  0
    4.7366    2.8489    3.1300 C   0  0  0  0  0  0
    2.4662   -0.8080    1.2028 H   0  0  0  0  0  0
    2.1855    0.8037    0.4726 H   0  0  0  0  0  0
    1.4722    0.4062    2.0672 H   0  0  0  0  0  0
    3.7736    0.2583    3.0577 H   0  0  0  0  0  0
    4.4854    0.6550    1.4664 H   0  0  0  0  0  0
    3.3186    2.8580    1.4937 H   0  0  0  0  0  0
    2.6069    2.4613    3.0849 H   0  0  0  0  0  0
    5.6200    2.7101    2.4842 H   0  0  0  0  0  0
    4.9068    2.3126    4.0787 H   0  0  0  0  0  0
    4.6261    3.9243    3.3486 H   0  0  0  0  0  0
    0.7774    5.4478    1.9866 C   0  0  0  0  0  0
   -0.0606    4.3938    1.3541 C   0  0  0  0  0  0
   -1.3172    4.4380    0.7987 C   0  0  0  0  0  0
   -1.6109    3.1698    0.3597 N   0  0  0  0  0  0
   -2.4894    2.8796   -0.1063 H   0  0  0  0  0  0
   -0.5932    2.3452    0.6187 C   0  0  0  0  0  0
    0.3471    3.0820    1.2205 N   0  0  0  0  0  0
    1.2580    2.7059    1.5400 H   0  0  0  0  0  0
    0.2324    6.4067    1.9729 H   0  0  0  0  0  0
    1.7263    5.5747    1.4387 H   0  0  0  0  0  0
    1.0077    5.1889    3.0337 H   0  0  0  0  0  0
   -2.0122    5.2702    0.6868 H   0  0  0  0  0  0
   -0.5401    1.2817    0.3855 H   0  0  0  0  0  0
  1  2  1  0  0  0
  2  3  1  0  0  0
  3  4  1  0  0  0
  1  5  1  0  0  0
  1  6  1  0  0  0
  1  7  1  0  0  0
  2  8  1  0  0  0
  2  9  1  0  0  0
  3 10  1  0  0  0
  3 11  1  0  0  0
  4 12  1  0  0  0
  4 13  1  0  0  0
  4 14  1  0  0  0
 15 16  1  0  0  0
 16 17  2  0  0  0
 17 18  1  0  0  0
 18 19  1  0  0  0
 18 20  2  0  0  0
 20 21  1  0  0  0
 21 22  1  0  0  0
 16 21  1  0  0  0
 15 23  1  0  0  0
 15 24  1  0  0  0
 15 25  1  0  0  0
 17 26  1  0  0  0
 20 27  1  0  0  0
M  CHG  1  18   1
M  END
$$$$
