


 20 18  0  0  1  0            999 V2000
    0.3931    3.7258   -1.9621 C   0  0  0  0  0  0
    0.4156    3.6046   -0.5035 C   0  0  0  0  0  0
    0.4344    3.5035    0.7093 C   0  0  0  0  0  0
    0.4573    3.3816    2.1678 C   0  0  0  0  0  0
   -0.2851    2.9734   -2.3987 H   0  0  0  0  0  0
    1.4039    3.5700   -2.3751 H   0  0  0  0  0  0
    0.0429    4.7290   -2.2580 H   0  0  0  0  0  0
   -0.2409    2.5939    2.4975 H   0  0  0  0  0  0
    1.4713    3.1205    2.5146 H   0  0  0  0  0  0
    0.1595    4.3344    2.6368 H   0  0  0  0  0  0
    0.5476    0.3797   -0.6376 C   0  0  0  0  0  0
    0.7622    0.2595    0.8055 C   0  0  0  0  0  0
    0.9401    0.1595    2.0054 C   0  0  0  0  0  0
    1.1537    0.0392    3.4486 C   0  0  0  0  0  0
    1.3357    1.0039   -1.0915 H   0  0  0  0  0  0
   -0.4312    0.8452   -0.8420 H   0  0  0  0  0  0
    0.5700   -0.6155   -1.1126 H   0  0  0  0  0  0
    2.0862   -0.5133    3.6533 H   0  0  0  0  0  0
    1.2285    1.0385    3.9095 H   0  0  0  0  0  0
    0.3142   -0.5021    3.9164 H   0  0  0  0  0  0
  1  2  1  0  0  0
  2  3  3  0  0  0
  3  4  1  0  0  0
  1  5  1  0  0  0
  1  6  1  0  0  0
  1  7  1  0  0  0
  4  8  1  0  0  0
  4  9  1  0  0  0
  4 10  1  0  0  0
 11 12  1  0  0  0
 12 13  3  0  0  0
 13 14  1  0  0  0
 11 15  1  0  0  0
 11 16  1  0  0  0
 11 17  1  0  0  0
 14 18  1  0  0  0
 14 19  1  0  0  0
 14 20  1  0  0  0
M  END
$$$$
