


 20 18  0  0  1  0            999 V2000
   -1.4103   -3.1012   -1.6985 C   0  0  0  0  0  0
   -1.7295   -4.2153   -3.1074 S   0  0  0  0  0  0
   -0.7244   -5.9839   -2.7887 S   0  0  0  0  0  0
   -1.4299   -6.7695   -1.3479 C   0  0  0  0  0  0
   -1.9559   -2.1534   -1.8427 H   0  0  0  0  0  0
   -0.3317   -2.8798   -1.6334 H   0  0  0  0  0  0
   -1.7349   -3.5526   -0.7459 H   0  0  0  0  0  0
   -1.0200   -7.7877   -1.2385 H   0  0  0  0  0  0
   -2.5286   -6.8380   -1.4164 H   0  0  0  0  0  0
   -1.1692   -6.1868   -0.4484 H   0  0  0  0  0  0
   -2.1330    3.8184    4.5904 C   0  0  0  0  0  0
   -3.9055    3.4935    4.7018 S   0  0  0  0  0  0
   -4.7043    4.5926    6.2692 S   0  0  0  0  0  0
   -3.9154    3.9257    7.8173 C   0  0  0  0  0  0
   -1.6528    3.8071    5.5833 H   0  0  0  0  0  0
   -1.9008    4.7777    4.0981 H   0  0  0  0  0  0
   -1.7081    3.0003    3.9848 H   0  0  0  0  0  0
   -4.5426    4.1526    8.6958 H   0  0  0  0  0  0
   -2.9021    4.3229    7.9963 H   0  0  0  0  0  0
   -3.8493    2.8304    7.7057 H   0  0  0  0  0  0
  1  2  1  0  0  0
  2  3  1  0  0  0
  3  4  1  0  0  0
  1  5  1  0  0  0
  1  6  1  0  0  0
  1  7  1  0  0  0
  4  8  1  0  0  0
  4  9  1  0  0  0
  4 10  1  0  0  0
 11 12  1  0  0  0
 12 13  1  0  0  0
 13 14  1  0  0  0
 11 15  1  0  0  0
 11 16  1  0  0  0
 11 17  1  0  0  0
 14 18  1  0  0  0
 14 19  1  0  0  0
 14 20  1  0  0  0
M  END
$$$$
