


 20 18  0  0  1  0            999 V2000
   -1.3023   -0.0213    3.4331 C   0  0  0  0  0  0
   -0.9014    0.4376    5.1515 S   0  0  0  0  0  0
   -2.5701    0.7315    6.1914 S   0  0  0  0  0  0
   -2.9058    2.4753    5.8945 C   0  0  0  0  0  0
   -2.0278   -0.8487    3.5089 H   0  0  0  0  0  0
   -0.4228   -0.3751    2.8693 H   0  0  0  0  0  0
   -1.7696    0.8062    2.8732 H   0  0  0  0  0  0
   -2.8704    3.1106    6.7955 H   0  0  0  0  0  0
   -3.8919    2.5984    5.4158 H   0  0  0  0  0  0
   -2.1281    2.8182    5.1915 H   0  0  0  0  0  0
    0.8466    7.5870    0.9780 C   0  0  0  0  0  0
    2.4441    7.6246    1.8550 S   0  0  0  0  0  0
    2.6868    5.6194    2.0485 S   0  0  0  0  0  0
    3.5323    4.9197    0.5948 C   0  0  0  0  0  0
    0.0386    7.1295    1.5734 H   0  0  0  0  0  0
    0.9478    7.0269    0.0332 H   0  0  0  0  0  0
    0.5642    8.6268    0.7420 H   0  0  0  0  0  0
    4.6019    4.6852    0.7267 H   0  0  0  0  0  0
    3.4379    5.7206   -0.1577 H   0  0  0  0  0  0
    3.0188    4.0196    0.2168 H   0  0  0  0  0  0
  1  2  1  0  0  0
  2  3  1  0  0  0
  3  4  1  0  0  0
  1  5  1  0  0  0
  1  6  1  0  0  0
  1  7  1  0  0  0
  4  8  1  0  0  0
  4  9  1  0  0  0
  4 10  1  0  0  0
 11 12  1  0  0  0
 12 13  1  0  0  0
 13 14  1  0  0  0
 11 15  1  0  0  0
 11 16  1  0  0  0
 11 17  1  0  0  0
 14 18  1  0  0  0
 14 19  1  0  0  0
 14 20  1  0  0  0
M  END
$$$$
