


 30 29  0  0  1  0            999 V2000
    0.1184   -2.2571    1.7194 C   0  0  0  0  0  0
   -0.3431   -0.8538    1.3267 C   0  0  0  0  0  0
    0.6044   -0.1840    0.3340 C   0  0  0  0  0  0
    0.1588    1.2197   -0.0699 C   0  0  0  0  0  0
    1.1185    1.8743   -1.0634 C   0  0  0  0  0  0
    0.1781   -2.8996    0.8249 H   0  0  0  0  0  0
    1.1168   -2.2100    2.1860 H   0  0  0  0  0  0
   -0.5835   -2.7159    2.4360 H   0  0  0  0  0  0
   -1.3521   -0.9110    0.8751 H   0  0  0  0  0  0
   -0.4155   -0.2228    2.2334 H   0  0  0  0  0  0
    1.6139   -0.1250    0.7844 H   0  0  0  0  0  0
    0.6772   -0.8131   -0.5739 H   0  0  0  0  0  0
   -0.8511    1.1588   -0.5191 H   0  0  0  0  0  0
    0.0856    1.8470    0.8392 H   0  0  0  0  0  0
    2.1250    1.9552   -0.6195 H   0  0  0  0  0  0
    1.1864    1.2656   -1.9806 H   0  0  0  0  0  0
    0.7724    2.8853   -1.3368 H   0  0  0  0  0  0
    2.1603    3.5259    2.0731 O   0  0  0  0  0  0
    2.6291    2.2782    2.3989 C   0  0  0  0  0  0
    1.8991    1.5497    3.3387 C   0  0  0  0  0  0
    2.3272    0.2771    3.7084 C   0  0  0  0  0  0
    3.4796   -0.2756    3.1472 C   0  0  0  0  0  0
    4.2041    0.4576    2.2089 C   0  0  0  0  0  0
    3.7823    1.7331    1.8330 C   0  0  0  0  0  0
    2.7694    3.9221    1.4036 H   0  0  0  0  0  0
    0.9948    1.9976    3.7714 H   0  0  0  0  0  0
    1.7485   -0.2912    4.4485 H   0  0  0  0  0  0
    3.8131   -1.2794    3.4419 H   0  0  0  0  0  0
    5.1126    0.0358    1.7590 H   0  0  0  0  0  0
    4.3542    2.3094    1.0937 H   0  0  0  0  0  0
  1  2  1  0  0  0
  2  3  1  0  0  0
  3  4  1  0  0  0
  4  5  1  0  0  0
  1  6  1  0  0  0
  1  7  1  0  0  0
  1  8  1  0  0  0
  2  9  1  0  0  0
  2 10  1  0  0  0
  3 11  1  0  0  0
  3 12  1  0  0  0
  4 13  1  0  0  0
  4 14  1  0  0  0
  5 15  1  0  0  0
  5 16  1  0  0  0
  5 17  1  0  0  0
 18 19  1  0  0  0
 19 20  2  0  0  0
 20 21  1  0  0  0
 21 22  2  0  0  0
 22 23  1  0  0  0
 23 24  2  0  0  0
 19 24  1  0  0  0
 18 25  1  0  0  0
 20 26  1  0  0  0
 21 27  1  0  0  0
 22 28  1  0  0  0
 23 29  1  0  0  0
 24 30  1  0  0  0
M  END
$$$$
