


 11  9  0  0  1  0            999 V2000
    4.8279   -1.0644   -0.7745 C   0  0  0  0  0  0
    3.5599   -0.4522   -0.2590 C   0  0  0  0  0  0
    2.5674   -1.0496    0.0934 O   0  0  0  0  0  0
    3.6476    0.9038   -0.2284 O   0  0  0  0  0  0
    4.7406   -2.1637   -0.7931 H   0  0  0  0  0  0
    5.6778   -0.7898   -0.1272 H   0  0  0  0  0  0
    5.0367   -0.7107   -1.7981 H   0  0  0  0  0  0
    2.7698    1.2166    0.1232 H   0  0  0  0  0  0
   -0.6216    1.5544    1.4402 S   0  0  0  0  0  0
   -1.8298    1.9028    1.9202 H   0  0  0  0  0  0
   -0.9211    0.2432    1.4930 H   0  0  0  0  0  0
  1  2  1  0  0  0
  2  3  2  0  0  0
  2  4  1  0  0  0
  1  5  1  0  0  0
  1  6  1  0  0  0
  1  7  1  0  0  0
  4  8  1  0  0  0
  9 10  1  0  0  0
  9 11  1  0  0  0
M  END
$$$$
