


 17 15  0  0  1  0            999 V2000
    2.0800    1.8814    3.6723 C   0  0  0  0  0  0
    2.2890    3.3550    2.6591 S   0  0  0  0  0  0
    2.9637    2.5624    1.1900 C   0  0  0  0  0  0
    1.6608    2.1916    4.6442 H   0  0  0  0  0  0
    3.0431    1.3742    3.8504 H   0  0  0  0  0  0
    1.3861    1.1639    3.2028 H   0  0  0  0  0  0
    3.9117    2.0435    1.4108 H   0  0  0  0  0  0
    2.2546    1.8333    0.7632 H   0  0  0  0  0  0
    3.1582    3.3456    0.4380 H   0  0  0  0  0  0
   -0.9017    2.9698   -0.4905 F   0  0  0  0  0  0
   -0.3391    3.3260    0.7264 C   0  0  0  0  0  0
   -0.5035    2.2248    1.7306 C   0  0  0  0  0  0
    0.3074    1.1449    1.4131 F   0  0  0  0  0  0
    0.7301    3.5612    0.5623 H   0  0  0  0  0  0
   -0.8346    4.2473    1.0886 H   0  0  0  0  0  0
   -0.2299    2.5873    2.7401 H   0  0  0  0  0  0
   -1.5527    1.8744    1.7716 H   0  0  0  0  0  0
  1  2  1  0  0  0
  2  3  1  0  0  0
  1  4  1  0  0  0
  1  5  1  0  0  0
  1  6  1  0  0  0
  3  7  1  0  0  0
  3  8  1  0  0  0
  3  9  1  0  0  0
 10 11  1  0  0  0
 11 12  1  0  0  0
 12 13  1  0  0  0
 11 14  1  0  0  0
 11 15  1  0  0  0
 12 16  1  0  0  0
 12 17  1  0  0  0
M  END
$$$$
