


 14 12  0  0  1  0            999 V2000
    3.1971   -1.3560    0.7237 C   0  0  0  0  0  0
    2.7744    0.0677    0.9309 C   0  0  0  0  0  0
    3.2204    1.0378    0.3599 O   0  0  0  0  0  0
    1.7948    0.1563    1.8688 O   0  0  0  0  0  0
    3.9917   -1.4107   -0.0394 H   0  0  0  0  0  0
    2.3421   -1.9652    0.3856 H   0  0  0  0  0  0
    3.5831   -1.7829    1.6647 H   0  0  0  0  0  0
    1.5822    1.1270    1.9366 H   0  0  0  0  0  0
    2.3318    4.8201    2.5764 C   0  0  0  0  0  0
    0.5888    4.3283    2.5569 S   0  0  0  0  0  0
    2.6384    4.8630    3.6350 H   0  0  0  0  0  0
    2.4871    5.8142    2.1245 H   0  0  0  0  0  0
    2.9740    4.0916    2.0533 H   0  0  0  0  0  0
    0.4344    4.3401    1.2158 H   0  0  0  0  0  0
  1  2  1  0  0  0
  2  3  2  0  0  0
  2  4  1  0  0  0
  1  5  1  0  0  0
  1  6  1  0  0  0
  1  7  1  0  0  0
  4  8  1  0  0  0
  9 10  1  0  0  0
  9 11  1  0  0  0
  9 12  1  0  0  0
  9 13  1  0  0  0
 10 14  1  0  0  0
M  END
$$$$
