


 20 19  0  0  1  0            999 V2000
    3.0982    1.8379    0.4026 C   0  0  0  0  0  0
    3.0330    1.5444   -0.9822 O   0  0  0  0  0  0
    3.4241    0.1794   -1.1212 C   0  0  0  0  0  0
    4.4040    0.0139    0.0191 C   0  0  0  0  0  0
    3.7937    0.7873    1.0510 O   0  0  0  0  0  0
    2.0919    1.9226    0.8562 H   0  0  0  0  0  0
    3.6076    2.8125    0.5292 H   0  0  0  0  0  0
    3.8507    0.0364   -2.1327 H   0  0  0  0  0  0
    2.5565   -0.5009   -1.0226 H   0  0  0  0  0  0
    5.4073    0.4047   -0.2381 H   0  0  0  0  0  0
    4.5304   -1.0235    0.3841 H   0  0  0  0  0  0
    0.1348    0.5423    2.0977 C   0  0  0  0  0  0
    0.4888   -0.3723    0.9335 C   0  0  0  0  0  0
    1.6917   -1.6675    1.3652 S   0  0  0  0  0  0
   -0.2644   -0.0459    2.9410 H   0  0  0  0  0  0
   -0.6287    1.2752    1.7873 H   0  0  0  0  0  0
    1.0284    1.0895    2.4422 H   0  0  0  0  0  0
   -0.4020   -0.9338    0.5920 H   0  0  0  0  0  0
    0.8732    0.2057    0.0712 H   0  0  0  0  0  0
    2.6935   -0.8307    1.7097 H   0  0  0  0  0  0
  1  2  1  0  0  0
  2  3  1  0  0  0
  3  4  1  0  0  0
  4  5  1  0  0  0
  1  5  1  0  0  0
  1  6  1  0  0  0
  1  7  1  0  0  0
  3  8  1  0  0  0
  3  9  1  0  0  0
  4 10  1  0  0  0
  4 11  1  0  0  0
 12 13  1  0  0  0
 13 14  1  0  0  0
 12 15  1  0  0  0
 12 16  1  0  0  0
 12 17  1  0  0  0
 13 18  1  0  0  0
 13 19  1  0  0  0
 14 20  1  0  0  0
M  END
$$$$
