


 14 12  0  0  1  0            999 V2000
    1.8987    2.9554   -0.6328 C   0  0  0  0  0  0
    2.5659    3.3057    1.0024 S   0  0  0  0  0  0
    3.8141    2.0091    1.0532 C   0  0  0  0  0  0
    1.0935    3.6813   -0.8360 H   0  0  0  0  0  0
    1.4768    1.9377   -0.6870 H   0  0  0  0  0  0
    2.6705    3.0583   -1.4141 H   0  0  0  0  0  0
    3.3592    1.0077    0.9700 H   0  0  0  0  0  0
    4.5529    2.1283    0.2429 H   0  0  0  0  0  0
    4.3390    2.0778    2.0208 H   0  0  0  0  0  0
   -1.4918   -2.7198    1.9826 I   0  0  0  0  0  0
   -1.6194   -1.0570    3.2835 C   0  0  0  0  0  0
   -0.3573    0.5644    2.7818 I   0  0  0  0  0  0
   -2.6664   -0.6977    3.2929 H   0  0  0  0  0  0
   -1.3696   -1.3927    4.3084 H   0  0  0  0  0  0
  1  2  1  0  0  0
  2  3  1  0  0  0
  1  4  1  0  0  0
  1  5  1  0  0  0
  1  6  1  0  0  0
  3  7  1  0  0  0
  3  8  1  0  0  0
  3  9  1  0  0  0
 10 11  1  0  0  0
 11 12  1  0  0  0
 11 13  1  0  0  0
 11 14  1  0  0  0
M  END
$$$$
