


 19 17  0  0  1  0            999 V2000
    0.8518    1.7559    3.0914 C   0  0  0  0  0  0
    1.3152    0.7398    2.0731 C   0  0  0  0  0  0
    0.5307    0.1436    1.3535 O   0  0  0  0  0  0
    2.8062    0.5047    1.9974 C   0  0  0  0  0  0
   -0.2462    1.8569    3.0622 H   0  0  0  0  0  0
    1.3014    2.7409    2.8814 H   0  0  0  0  0  0
    1.1494    1.4425    4.1063 H   0  0  0  0  0  0
    3.3274    1.4403    1.7337 H   0  0  0  0  0  0
    3.1880    0.1514    2.9700 H   0  0  0  0  0  0
    3.0377   -0.2548    1.2317 H   0  0  0  0  0  0
    1.9820    2.7627   -1.7739 C   0  0  0  0  0  0
    1.5947    3.5991   -0.7021 O   0  0  0  0  0  0
    0.2152    3.8985   -0.7799 C   0  0  0  0  0  0
    3.0610    2.5595   -1.6681 H   0  0  0  0  0  0
    1.8093    3.2466   -2.7500 H   0  0  0  0  0  0
    1.4398    1.8023   -1.7565 H   0  0  0  0  0  0
   -0.0331    4.4309   -1.7135 H   0  0  0  0  0  0
   -0.4026    2.9867   -0.7200 H   0  0  0  0  0  0
   -0.0355    4.5501    0.0740 H   0  0  0  0  0  0
  1  2  1  0  0  0
  2  3  2  0  0  0
  2  4  1  0  0  0
  1  5  1  0  0  0
  1  6  1  0  0  0
  1  7  1  0  0  0
  4  8  1  0  0  0
  4  9  1  0  0  0
  4 10  1  0  0  0
 11 12  1  0  0  0
 12 13  1  0  0  0
 11 14  1  0  0  0
 11 15  1  0  0  0
 11 16  1  0  0  0
 13 17  1  0  0  0
 13 18  1  0  0  0
 13 19  1  0  0  0
M  END
$$$$
