


 19 17  0  0  1  0            999 V2000
    0.8518    1.7559    3.0914 C   0  0  0  0  0  0
    1.3152    0.7398    2.0731 C   0  0  0  0  0  0
    0.5307    0.1436    1.3535 O   0  0  0  0  0  0
    2.8062    0.5047    1.9974 C   0  0  0  0  0  0
   -0.2462    1.8569    3.0622 H   0  0  0  0  0  0
    1.3014    2.7409    2.8814 H   0  0  0  0  0  0
    1.1494    1.4425    4.1063 H   0  0  0  0  0  0
    3.3274    1.4403    1.7337 H   0  0  0  0  0  0
    3.1880    0.1514    2.9700 H   0  0  0  0  0  0
    3.0377   -0.2548    1.2317 H   0  0  0  0  0  0
    1.9747    2.2969   -1.2515 C   0  0  0  0  0  0
    1.5873    3.1333   -0.1796 O   0  0  0  0  0  0
    0.2078    3.4327   -0.2575 C   0  0  0  0  0  0
    3.0536    2.0937   -1.1456 H   0  0  0  0  0  0
    1.8019    2.7808   -2.2275 H   0  0  0  0  0  0
    1.4324    1.3365   -1.2341 H   0  0  0  0  0  0
   -0.0405    3.9651   -1.1910 H   0  0  0  0  0  0
   -0.4100    2.5209   -0.1975 H   0  0  0  0  0  0
   -0.0430    4.0843    0.5965 H   0  0  0  0  0  0
  1  2  1  0  0  0
  2  3  2  0  0  0
  2  4  1  0  0  0
  1  5  1  0  0  0
  1  6  1  0  0  0
  1  7  1  0  0  0
  4  8  1  0  0  0
  4  9  1  0  0  0
  4 10  1  0  0  0
 11 12  1  0  0  0
 12 13  1  0  0  0
 11 14  1  0  0  0
 11 15  1  0  0  0
 11 16  1  0  0  0
 13 17  1  0  0  0
 13 18  1  0  0  0
 13 19  1  0  0  0
M  END
$$$$
