


 25 24  0  0  1  0            999 V2000
    2.3401    2.6483   -2.2097 Br  0  0  0  0  0  0
    2.4667    2.8831   -0.3460 C   0  0  0  0  0  0
    3.3209    2.0650    0.3919 C   0  0  0  0  0  0
    3.4146    2.2389    1.7726 C   0  0  0  0  0  0
    2.6526    3.2281    2.3926 C   0  0  0  0  0  0
    1.7984    4.0462    1.6547 C   0  0  0  0  0  0
    1.7046    3.8723    0.2740 C   0  0  0  0  0  0
    2.7791    3.4630    4.2563 Br  0  0  0  0  0  0
    3.9147    1.2902   -0.1107 H   0  0  0  0  0  0
    4.0830    1.6024    2.3674 H   0  0  0  0  0  0
    1.2045    4.8210    2.1573 H   0  0  0  0  0  0
    1.0363    4.5088   -0.3208 H   0  0  0  0  0  0
   -0.0616    0.8292    0.0056 C   0  0  0  0  0  0
    0.4306    1.2688    1.3073 N   0  0  0  0  0  0
    0.0106    0.7727    2.4657 C   0  0  0  0  0  0
    0.5114    1.2291    3.6196 N   0  0  0  0  0  0
    1.2224    1.9646    3.6128 H   0  0  0  0  0  0
    0.1836    0.8428    4.5083 H   0  0  0  0  0  0
   -0.9168   -0.1870    2.4797 N   0  0  0  0  0  0
    0.4588    1.4089   -0.7752 H   0  0  0  0  0  0
   -1.1466    1.0019   -0.0923 H   0  0  0  0  0  0
    0.1403   -0.2426   -0.1586 H   0  0  0  0  0  0
    1.1423    2.0033    1.3331 H   0  0  0  0  0  0
   -1.3017   -0.5381    1.5993 H   0  0  0  0  0  0
   -1.2428   -0.5715    3.3699 H   0  0  0  0  0  0
  1  2  1  0  0  0
  2  3  2  0  0  0
  3  4  1  0  0  0
  4  5  2  0  0  0
  5  6  1  0  0  0
  6  7  2  0  0  0
  2  7  1  0  0  0
  5  8  1  0  0  0
  3  9  1  0  0  0
  4 10  1  0  0  0
  6 11  1  0  0  0
  7 12  1  0  0  0
 13 14  1  0  0  0
 14 15  1  0  0  0
 15 16  2  0  0  0
 16 17  1  0  0  0
 16 18  1  0  0  0
 15 19  1  0  0  0
 13 20  1  0  0  0
 13 21  1  0  0  0
 13 22  1  0  0  0
 14 23  1  0  0  0
 19 24  1  0  0  0
 19 25  1  0  0  0
M  CHG  1  16   1
M  END
$$$$
