


 20 19  0  0  1  0            999 V2000
    4.1710    3.8825    0.5696 C   0  0  0  0  0  0
    2.6236    3.1724    1.1720 S   0  0  0  0  0  0
    3.2552    1.4389    2.0387 S   0  0  0  0  0  0
    3.7340    1.9916    3.6900 C   0  0  0  0  0  0
    3.9218    4.8193    0.0435 H   0  0  0  0  0  0
    4.6765    3.2049   -0.1389 H   0  0  0  0  0  0
    4.8683    4.1155    1.3918 H   0  0  0  0  0  0
    4.5680    2.7128    3.6605 H   0  0  0  0  0  0
    2.8861    2.4557    4.2213 H   0  0  0  0  0  0
    4.0584    1.1015    4.2550 H   0  0  0  0  0  0
   -0.1951    1.4885    0.5159 C   0  0  0  0  0  0
   -1.4499    1.0483    0.3826 N   0  0  0  0  0  0
   -2.1200    1.4092   -0.3203 H   0  0  0  0  0  0
   -1.7105    0.0627    1.3024 C   0  0  0  0  0  0
   -0.5601   -0.1023    2.0272 C   0  0  0  0  0  0
    0.3500    0.7901    1.5166 N   0  0  0  0  0  0
    1.3232    0.9153    1.8492 H   0  0  0  0  0  0
    0.2892    2.2654   -0.0758 H   0  0  0  0  0  0
   -2.6767   -0.4372    1.3703 H   0  0  0  0  0  0
   -0.3247   -0.7746    2.8523 H   0  0  0  0  0  0
  1  2  1  0  0  0
  2  3  1  0  0  0
  3  4  1  0  0  0
  1  5  1  0  0  0
  1  6  1  0  0  0
  1  7  1  0  0  0
  4  8  1  0  0  0
  4  9  1  0  0  0
  4 10  1  0  0  0
 11 12  1  0  0  0
 12 13  1  0  0  0
 12 14  1  0  0  0
 14 15  2  0  0  0
 15 16  1  0  0  0
 16 17  1  0  0  0
 11 16  2  0  0  0
 11 18  1  0  0  0
 14 19  1  0  0  0
 15 20  1  0  0  0
M  CHG  1  16   1
M  END
$$$$
