


 24 22  0  0  1  0            999 V2000
    3.3066   -0.4646    0.9080 C   0  0  0  0  0  0
    2.4349    0.5374    1.6293 C   0  0  0  0  0  0
    2.4246    1.7194    1.3266 O   0  0  0  0  0  0
    1.5765   -0.0087    2.7469 C   0  0  0  0  0  0
    3.8853    0.0320    0.1111 H   0  0  0  0  0  0
    2.6857   -1.2541    0.4522 H   0  0  0  0  0  0
    4.0117   -0.9351    1.6138 H   0  0  0  0  0  0
    0.8821   -0.7719    2.3570 H   0  0  0  0  0  0
    2.2083   -0.4718    3.5235 H   0  0  0  0  0  0
    0.9865    0.8003    3.2095 H   0  0  0  0  0  0
    3.9892    3.2109   -0.8842 C   0  0  0  0  0  0
    2.9960    3.4009    0.2080 N   0  0  0  0  0  0
    2.8318    2.4691    0.6491 H   0  0  0  0  0  0
    3.5191    4.3106    1.2637 C   0  0  0  0  0  0
    1.6914    3.8814   -0.3235 C   0  0  0  0  0  0
    4.9382    2.8171   -0.4831 H   0  0  0  0  0  0
    4.1895    4.1776   -1.3762 H   0  0  0  0  0  0
    3.6064    2.5043   -1.6397 H   0  0  0  0  0  0
    3.7057    5.3093    0.8342 H   0  0  0  0  0  0
    2.7909    4.4117    2.0860 H   0  0  0  0  0  0
    4.4653    3.9232    1.6774 H   0  0  0  0  0  0
    1.8248    4.8676   -0.7992 H   0  0  0  0  0  0
    1.2951    3.1787   -1.0757 H   0  0  0  0  0  0
    0.9525    3.9800    0.4895 H   0  0  0  0  0  0
  1  2  1  0  0  0
  2  3  2  0  0  0
  2  4  1  0  0  0
  1  5  1  0  0  0
  1  6  1  0  0  0
  1  7  1  0  0  0
  4  8  1  0  0  0
  4  9  1  0  0  0
  4 10  1  0  0  0
 11 12  1  0  0  0
 12 13  1  0  0  0
 12 14  1  0  0  0
 12 15  1  0  0  0
 11 16  1  0  0  0
 11 17  1  0  0  0
 11 18  1  0  0  0
 14 19  1  0  0  0
 14 20  1  0  0  0
 14 21  1  0  0  0
 15 22  1  0  0  0
 15 23  1  0  0  0
 15 24  1  0  0  0
M  CHG  1  12   1
M  END
$$$$
