


 15 13  0  0  1  0            999 V2000
    3.7688    1.7297    3.5082 C   0  0  0  0  0  0
    2.2947    1.6893    3.1308 C   0  0  0  0  0  0
    1.8115    0.1752    2.2451 S   0  0  0  0  0  0
    4.0307    0.8565    4.1291 H   0  0  0  0  0  0
    3.9904    2.6469    4.0795 H   0  0  0  0  0  0
    4.3981    1.7187    2.6024 H   0  0  0  0  0  0
    1.6587    1.6872    4.0369 H   0  0  0  0  0  0
    2.0115    2.5701    2.5229 H   0  0  0  0  0  0
    2.6284    0.3558    1.1857 H   0  0  0  0  0  0
    1.4004    3.0796   -0.2870 C   0  0  0  0  0  0
    3.1694    2.7547   -0.4996 S   0  0  0  0  0  0
    1.3159    3.9766    0.3493 H   0  0  0  0  0  0
    0.8825    2.2437    0.2126 H   0  0  0  0  0  0
    0.8975    3.2812   -1.2478 H   0  0  0  0  0  0
    3.0384    1.6600   -1.2787 H   0  0  0  0  0  0
  1  2  1  0  0  0
  2  3  1  0  0  0
  1  4  1  0  0  0
  1  5  1  0  0  0
  1  6  1  0  0  0
  2  7  1  0  0  0
  2  8  1  0  0  0
  3  9  1  0  0  0
 10 11  1  0  0  0
 10 12  1  0  0  0
 10 13  1  0  0  0
 10 14  1  0  0  0
 11 15  1  0  0  0
M  END
$$$$
