


 30 30  0  0  1  0            999 V2000
    3.5861    0.8861    3.2472 C   0  0  0  0  0  0
    3.0813    1.0468    1.8352 C   0  0  0  0  0  0
    2.8665   -0.0685    1.0178 C   0  0  0  0  0  0
    2.4311    0.0774   -0.2994 C   0  0  0  0  0  0
    2.2002    1.3498   -0.8221 C   0  0  0  0  0  0
    2.4061    2.4709   -0.0182 C   0  0  0  0  0  0
    2.8416    2.3164    1.2980 C   0  0  0  0  0  0
    3.2383   -0.0696    3.6742 H   0  0  0  0  0  0
    3.2199    1.7096    3.8832 H   0  0  0  0  0  0
    4.6890    0.8961    3.2592 H   0  0  0  0  0  0
    3.0419   -1.0736    1.4235 H   0  0  0  0  0  0
    2.2666   -0.8118   -0.9222 H   0  0  0  0  0  0
    1.8546    1.4678   -1.8576 H   0  0  0  0  0  0
    2.2219    3.4766   -0.4184 H   0  0  0  0  0  0
    2.9973    3.2036    1.9260 H   0  0  0  0  0  0
    0.4290   -0.8870    2.5975 C   0  0  0  0  0  0
    0.3268    0.6119    2.4656 C   0  0  0  0  0  0
    0.6438    1.4509    3.5396 C   0  0  0  0  0  0
    0.5192    2.8361    3.4324 C   0  0  0  0  0  0
    0.0743    3.4074    2.2402 C   0  0  0  0  0  0
   -0.2418    2.5842    1.1595 C   0  0  0  0  0  0
   -0.1144    1.1999    1.2749 C   0  0  0  0  0  0
    1.2261   -1.1573    3.3104 H   0  0  0  0  0  0
    0.6603   -1.3447    1.6210 H   0  0  0  0  0  0
   -0.5255   -1.3016    2.9632 H   0  0  0  0  0  0
    0.9988    1.0089    4.4800 H   0  0  0  0  0  0
    0.7760    3.4757    4.2872 H   0  0  0  0  0  0
   -0.0220    4.4976    2.1516 H   0  0  0  0  0  0
   -0.5875    3.0243    0.2148 H   0  0  0  0  0  0
   -0.3610    0.5587    0.4184 H   0  0  0  0  0  0
  1  2  1  0  0  0
  2  3  1  0  0  0
  3  4  2  0  0  0
  4  5  1  0  0  0
  5  6  2  0  0  0
  6  7  1  0  0  0
  2  7  2  0  0  0
  1  8  1  0  0  0
  1  9  1  0  0  0
  1 10  1  0  0  0
  3 11  1  0  0  0
  4 12  1  0  0  0
  5 13  1  0  0  0
  6 14  1  0  0  0
  7 15  1  0  0  0
 16 17  1  0  0  0
 17 18  1  0  0  0
 18 19  2  0  0  0
 19 20  1  0  0  0
 20 21  2  0  0  0
 21 22  1  0  0  0
 17 22  2  0  0  0
 16 23  1  0  0  0
 16 24  1  0  0  0
 16 25  1  0  0  0
 18 26  1  0  0  0
 19 27  1  0  0  0
 20 28  1  0  0  0
 21 29  1  0  0  0
 22 30  1  0  0  0
M  END
$$$$
