


 30 30  0  0  1  0            999 V2000
    3.5861    0.8861    3.2472 C   0  0  0  0  0  0
    3.0813    1.0468    1.8352 C   0  0  0  0  0  0
    2.8665   -0.0685    1.0178 C   0  0  0  0  0  0
    2.4311    0.0774   -0.2994 C   0  0  0  0  0  0
    2.2002    1.3498   -0.8221 C   0  0  0  0  0  0
    2.4061    2.4709   -0.0182 C   0  0  0  0  0  0
    2.8416    2.3164    1.2980 C   0  0  0  0  0  0
    3.2383   -0.0696    3.6742 H   0  0  0  0  0  0
    3.2199    1.7096    3.8832 H   0  0  0  0  0  0
    4.6890    0.8961    3.2592 H   0  0  0  0  0  0
    3.0419   -1.0736    1.4235 H   0  0  0  0  0  0
    2.2666   -0.8118   -0.9222 H   0  0  0  0  0  0
    1.8546    1.4678   -1.8576 H   0  0  0  0  0  0
    2.2219    3.4766   -0.4184 H   0  0  0  0  0  0
    2.9973    3.2036    1.9260 H   0  0  0  0  0  0
    0.3441   -0.8715    2.6480 C   0  0  0  0  0  0
    0.2418    0.6274    2.5161 C   0  0  0  0  0  0
    0.5589    1.4664    3.5901 C   0  0  0  0  0  0
    0.4342    2.8516    3.4829 C   0  0  0  0  0  0
   -0.0106    3.4228    2.2907 C   0  0  0  0  0  0
   -0.3267    2.5996    1.2099 C   0  0  0  0  0  0
   -0.1993    1.2153    1.3254 C   0  0  0  0  0  0
    1.1411   -1.1419    3.3609 H   0  0  0  0  0  0
    0.5753   -1.3292    1.6714 H   0  0  0  0  0  0
   -0.6104   -1.2861    3.0136 H   0  0  0  0  0  0
    0.9139    1.0244    4.5304 H   0  0  0  0  0  0
    0.6910    3.4912    4.3376 H   0  0  0  0  0  0
   -0.1070    4.5130    2.2021 H   0  0  0  0  0  0
   -0.6724    3.0397    0.2653 H   0  0  0  0  0  0
   -0.4460    0.5741    0.4688 H   0  0  0  0  0  0
  1  2  1  0  0  0
  2  3  1  0  0  0
  3  4  2  0  0  0
  4  5  1  0  0  0
  5  6  2  0  0  0
  6  7  1  0  0  0
  2  7  2  0  0  0
  1  8  1  0  0  0
  1  9  1  0  0  0
  1 10  1  0  0  0
  3 11  1  0  0  0
  4 12  1  0  0  0
  5 13  1  0  0  0
  6 14  1  0  0  0
  7 15  1  0  0  0
 16 17  1  0  0  0
 17 18  1  0  0  0
 18 19  2  0  0  0
 19 20  1  0  0  0
 20 21  2  0  0  0
 21 22  1  0  0  0
 17 22  2  0  0  0
 16 23  1  0  0  0
 16 24  1  0  0  0
 16 25  1  0  0  0
 18 26  1  0  0  0
 19 27  1  0  0  0
 20 28  1  0  0  0
 21 29  1  0  0  0
 22 30  1  0  0  0
M  END
$$$$
