


 17 15  0  0  1  0            999 V2000
    0.0000    0.0000    0.0000 C   0  0  0  0  0  0
    0.0542    1.4057    0.4848 N   0  0  0  0  0  0
   -0.8312    1.8187    0.1167 H   0  0  0  0  0  0
   -0.0611    1.5395    1.9193 C   0  0  0  0  0  0
    1.1977    2.1035   -0.0961 C   0  0  0  0  0  0
    0.3676   -0.7103    0.7596 H   0  0  0  0  0  0
    0.5862   -0.1385   -0.9240 H   0  0  0  0  0  0
   -1.0567   -0.2312   -0.2157 H   0  0  0  0  0  0
   -0.0557    2.6207    2.1372 H   0  0  0  0  0  0
    0.7554    1.0622    2.4869 H   0  0  0  0  0  0
   -1.0209    1.1165    2.2608 H   0  0  0  0  0  0
    1.2808    1.9618   -1.1868 H   0  0  0  0  0  0
    2.1504    1.8029    0.3713 H   0  0  0  0  0  0
    1.0282    3.1742    0.1076 H   0  0  0  0  0  0
   -1.2852    1.2725   -2.3051 O   0  0  0  0  0  0
   -1.7217    2.1491   -2.4016 H   0  0  0  0  0  0
   -0.5516    1.2872   -2.9607 H   0  0  0  0  0  0
  1  2  1  0  0  0
  2  3  1  0  0  0
  2  4  1  0  0  0
  2  5  1  0  0  0
  1  6  1  0  0  0
  1  7  1  0  0  0
  1  8  1  0  0  0
  4  9  1  0  0  0
  4 10  1  0  0  0
  4 11  1  0  0  0
  5 12  1  0  0  0
  5 13  1  0  0  0
  5 14  1  0  0  0
 15 16  1  0  0  0
 15 17  1  0  0  0
M  CHG  1   2   1
M  END
$$$$
