


 10  8  0  0  1  0            999 V2000
   -1.0199   -2.0732   -3.3565 C   0  0  0  0  0  0
   -0.7248   -1.9221   -4.4054 H   0  0  0  0  0  0
   -0.7475   -1.1854   -2.7669 H   0  0  0  0  0  0
   -0.5008   -2.9550   -2.9527 H   0  0  0  0  0  0
   -2.1071   -2.2308   -3.3006 H   0  0  0  0  0  0
   -2.7245   -2.6532    3.4781 C   0  0  0  0  0  0
   -2.4131   -3.6807    3.7174 H   0  0  0  0  0  0
   -2.8963   -2.0951    4.4103 H   0  0  0  0  0  0
   -3.6535   -2.6790    2.8896 H   0  0  0  0  0  0
   -1.9349   -2.1574    2.8944 H   0  0  0  0  0  0
  1  2  1  0  0  0
  1  3  1  0  0  0
  1  4  1  0  0  0
  1  5  1  0  0  0
  6  7  1  0  0  0
  6  8  1  0  0  0
  6  9  1  0  0  0
  6 10  1  0  0  0
M  END
$$$$
