


 10  8  0  0  1  0            999 V2000
    3.1981    3.5835   -0.1418 C   0  0  0  0  0  0
    2.6165    3.8411   -1.0393 H   0  0  0  0  0  0
    2.5172    3.4545    0.7124 H   0  0  0  0  0  0
    3.9121    4.3912    0.0771 H   0  0  0  0  0  0
    3.7474    2.6468   -0.3172 H   0  0  0  0  0  0
    5.6157    1.8645    2.6031 C   0  0  0  0  0  0
    5.8078    0.8925    3.0810 H   0  0  0  0  0  0
    5.4465    1.7172    1.5263 H   0  0  0  0  0  0
    6.4835    2.5240    2.7511 H   0  0  0  0  0  0
    4.7245    2.3251    3.0544 H   0  0  0  0  0  0
  1  2  1  0  0  0
  1  3  1  0  0  0
  1  4  1  0  0  0
  1  5  1  0  0  0
  6  7  1  0  0  0
  6  8  1  0  0  0
  6  9  1  0  0  0
  6 10  1  0  0  0
M  END
$$$$
