


 10  8  0  0  1  0            999 V2000
    0.0000    0.0000    0.0000 C   0  0  0  0  0  0
   -0.3454    0.9506    0.4326 H   0  0  0  0  0  0
    1.0994   -0.0100   -0.0339 H   0  0  0  0  0  0
   -0.3992   -0.1057   -1.0195 H   0  0  0  0  0  0
   -0.3551   -0.8358    0.6208 H   0  0  0  0  0  0
    0.2030   -3.7083    1.4517 C   0  0  0  0  0  0
   -0.5594   -3.9889    2.1934 H   0  0  0  0  0  0
   -0.2550   -3.6653    0.4525 H   0  0  0  0  0  0
    1.0094   -4.4564    1.4534 H   0  0  0  0  0  0
    0.6179   -2.7221    1.7074 H   0  0  0  0  0  0
  1  2  1  0  0  0
  1  3  1  0  0  0
  1  4  1  0  0  0
  1  5  1  0  0  0
  6  7  1  0  0  0
  6  8  1  0  0  0
  6  9  1  0  0  0
  6 10  1  0  0  0
M  END
$$$$
