


 10  8  0  0  1  0            999 V2000
   -1.9353   -3.2697    0.2956 C   0  0  0  0  0  0
   -0.8507   -3.1676    0.4479 H   0  0  0  0  0  0
   -2.1278   -3.6944   -0.7006 H   0  0  0  0  0  0
   -2.4110   -2.2807    0.3708 H   0  0  0  0  0  0
   -2.3525   -3.9361    1.0649 H   0  0  0  0  0  0
   -1.1731   -5.4574   -3.0683 C   0  0  0  0  0  0
   -2.0745   -6.0854   -3.0138 H   0  0  0  0  0  0
   -0.4453   -5.9183   -3.7523 H   0  0  0  0  0  0
   -0.7281   -5.3664   -2.0665 H   0  0  0  0  0  0
   -1.4442   -4.4584   -3.4406 H   0  0  0  0  0  0
  1  2  1  0  0  0
  1  3  1  0  0  0
  1  4  1  0  0  0
  1  5  1  0  0  0
  6  7  1  0  0  0
  6  8  1  0  0  0
  6  9  1  0  0  0
  6 10  1  0  0  0
M  END
$$$$
