


 10  8  0  0  1  0            999 V2000
    2.2684   -3.5547   -1.4903 C   0  0  0  0  0  0
    2.0936   -4.4498   -2.1052 H   0  0  0  0  0  0
    2.8845   -3.8222   -0.6192 H   0  0  0  0  0  0
    1.3043   -3.1510   -1.1475 H   0  0  0  0  0  0
    2.7913   -2.7947   -2.0894 H   0  0  0  0  0  0
   -0.9910   -4.5507   -4.4009 C   0  0  0  0  0  0
   -0.1213   -5.1175   -4.0370 H   0  0  0  0  0  0
   -0.7509   -3.4773   -4.4130 H   0  0  0  0  0  0
   -1.8486   -4.7271   -3.7351 H   0  0  0  0  0  0
   -1.2440   -4.8810   -5.4192 H   0  0  0  0  0  0
  1  2  1  0  0  0
  1  3  1  0  0  0
  1  4  1  0  0  0
  1  5  1  0  0  0
  6  7  1  0  0  0
  6  8  1  0  0  0
  6  9  1  0  0  0
  6 10  1  0  0  0
M  END
$$$$
