


 10  8  0  0  1  0            999 V2000
    2.2778    5.1500    0.3931 C   0  0  0  0  0  0
    2.6025    4.1912   -0.0373 H   0  0  0  0  0  0
    1.3022    5.0202    0.8845 H   0  0  0  0  0  0
    2.1886    5.8998   -0.4067 H   0  0  0  0  0  0
    3.0181    5.4895    1.1325 H   0  0  0  0  0  0
   -2.7795    3.5907    4.2890 C   0  0  0  0  0  0
   -2.6822    3.2055    5.3148 H   0  0  0  0  0  0
   -1.8709    3.3487    3.7183 H   0  0  0  0  0  0
   -2.9146    4.6820    4.3181 H   0  0  0  0  0  0
   -3.6511    3.1267    3.8043 H   0  0  0  0  0  0
  1  2  1  0  0  0
  1  3  1  0  0  0
  1  4  1  0  0  0
  1  5  1  0  0  0
  6  7  1  0  0  0
  6  8  1  0  0  0
  6  9  1  0  0  0
  6 10  1  0  0  0
M  END
$$$$
