


 10  8  0  0  1  0            999 V2000
   -3.7116   -0.8525   -0.3876 C   0  0  0  0  0  0
   -3.0109   -0.0173   -0.5345 H   0  0  0  0  0  0
   -4.6989   -0.5781   -0.7877 H   0  0  0  0  0  0
   -3.7996   -1.0731    0.6864 H   0  0  0  0  0  0
   -3.3371   -1.7423   -0.9147 H   0  0  0  0  0  0
   -1.2005   -2.5460   -3.7110 C   0  0  0  0  0  0
   -1.8477   -1.7601   -4.1276 H   0  0  0  0  0  0
   -0.6008   -2.1298   -2.8881 H   0  0  0  0  0  0
   -0.5311   -2.9251   -4.4973 H   0  0  0  0  0  0
   -1.8223   -3.3699   -3.3309 H   0  0  0  0  0  0
  1  2  1  0  0  0
  1  3  1  0  0  0
  1  4  1  0  0  0
  1  5  1  0  0  0
  6  7  1  0  0  0
  6  8  1  0  0  0
  6  9  1  0  0  0
  6 10  1  0  0  0
M  END
$$$$
