


 10  8  0  0  1  0            999 V2000
   -3.2488    1.2360    1.6975 C   0  0  0  0  0  0
   -4.2960    1.1835    2.0302 H   0  0  0  0  0  0
   -2.9834    0.3068    1.1720 H   0  0  0  0  0  0
   -2.5923    1.3637    2.5708 H   0  0  0  0  0  0
   -3.1229    2.0907    1.0167 H   0  0  0  0  0  0
    2.1014    3.6679    4.8807 C   0  0  0  0  0  0
    1.8809    2.8049    5.5260 H   0  0  0  0  0  0
    1.1822    4.2501    4.7192 H   0  0  0  0  0  0
    2.4859    3.3137    3.9128 H   0  0  0  0  0  0
    2.8575    4.3038    5.3644 H   0  0  0  0  0  0
  1  2  1  0  0  0
  1  3  1  0  0  0
  1  4  1  0  0  0
  1  5  1  0  0  0
  6  7  1  0  0  0
  6  8  1  0  0  0
  6  9  1  0  0  0
  6 10  1  0  0  0
M  END
$$$$
