


 10  8  0  0  1  0            999 V2000
   -3.1570   -2.2193   -1.4988 C   0  0  0  0  0  0
   -3.5275   -1.2162   -1.7568 H   0  0  0  0  0  0
   -3.9923   -2.8377   -1.1384 H   0  0  0  0  0  0
   -2.3945   -2.1373   -0.7102 H   0  0  0  0  0  0
   -2.7131   -2.6866   -2.3902 H   0  0  0  0  0  0
   -3.3027   -1.1418    4.5830 C   0  0  0  0  0  0
   -2.2653   -1.5038    4.6354 H   0  0  0  0  0  0
   -3.4778   -0.4113    5.3865 H   0  0  0  0  0  0
   -3.9935   -1.9896    4.7012 H   0  0  0  0  0  0
   -3.4749   -0.6624    3.6080 H   0  0  0  0  0  0
  1  2  1  0  0  0
  1  3  1  0  0  0
  1  4  1  0  0  0
  1  5  1  0  0  0
  6  7  1  0  0  0
  6  8  1  0  0  0
  6  9  1  0  0  0
  6 10  1  0  0  0
M  END
$$$$
