


 10  8  0  0  1  0            999 V2000
   -2.0968    3.2368   -3.4686 C   0  0  0  0  0  0
   -1.7875    3.3338   -4.5198 H   0  0  0  0  0  0
   -1.7413    2.2758   -3.0684 H   0  0  0  0  0  0
   -3.1941    3.2777   -3.4036 H   0  0  0  0  0  0
   -1.6643    4.0605   -2.8817 H   0  0  0  0  0  0
   -3.2255   -0.1895   -5.0226 C   0  0  0  0  0  0
   -3.9688    0.5360   -5.3849 H   0  0  0  0  0  0
   -2.3323   -0.1511   -5.6635 H   0  0  0  0  0  0
   -3.6554   -1.2016   -5.0531 H   0  0  0  0  0  0
   -2.9452    0.0583   -3.9882 H   0  0  0  0  0  0
  1  2  1  0  0  0
  1  3  1  0  0  0
  1  4  1  0  0  0
  1  5  1  0  0  0
  6  7  1  0  0  0
  6  8  1  0  0  0
  6  9  1  0  0  0
  6 10  1  0  0  0
M  END
$$$$
