


 10  8  0  0  1  0            999 V2000
   11.7400   -5.1554   -6.6821 C   0  0  0  0  0  0
   12.4692   -4.7042   -7.3710 H   0  0  0  0  0  0
   11.0627   -5.8149   -7.2445 H   0  0  0  0  0  0
   11.1565   -4.3611   -6.1936 H   0  0  0  0  0  0
   12.2715   -5.7417   -5.9181 H   0  0  0  0  0  0
   10.8676   -2.3992   -6.5499 C   0  0  0  0  0  0
   10.3406   -3.1127   -5.8993 H   0  0  0  0  0  0
   11.9472   -2.6088   -6.5262 H   0  0  0  0  0  0
   10.6851   -1.3744   -6.1942 H   0  0  0  0  0  0
   10.4973   -2.5004   -7.5807 H   0  0  0  0  0  0
  1  2  1  0  0  0
  1  3  1  0  0  0
  1  4  1  0  0  0
  1  5  1  0  0  0
  6  7  1  0  0  0
  6  8  1  0  0  0
  6  9  1  0  0  0
  6 10  1  0  0  0
M  END
$$$$
