


 10  8  0  0  1  0            999 V2000
   -3.7436    0.5728    3.7095 C   0  0  0  0  0  0
   -3.5774    1.6601    3.7244 H   0  0  0  0  0  0
   -3.7854    0.1935    4.7411 H   0  0  0  0  0  0
   -2.9184    0.0828    3.1718 H   0  0  0  0  0  0
   -4.6936    0.3541    3.1999 H   0  0  0  0  0  0
   -4.0383   -0.1392    0.3535 C   0  0  0  0  0  0
   -4.1154    0.3232   -0.6416 H   0  0  0  0  0  0
   -4.7486    0.3452    1.0396 H   0  0  0  0  0  0
   -3.0150   -0.0151    0.7375 H   0  0  0  0  0  0
   -4.2738   -1.2111    0.2790 H   0  0  0  0  0  0
  1  2  1  0  0  0
  1  3  1  0  0  0
  1  4  1  0  0  0
  1  5  1  0  0  0
  6  7  1  0  0  0
  6  8  1  0  0  0
  6  9  1  0  0  0
  6 10  1  0  0  0
M  END
$$$$
