


 10  8  0  0  1  0            999 V2000
    1.4533   -9.0451   -0.4622 C   0  0  0  0  0  0
    2.5013   -8.9842   -0.1335 H   0  0  0  0  0  0
    0.8089   -9.2597    0.4031 H   0  0  0  0  0  0
    1.3482   -9.8486   -1.2060 H   0  0  0  0  0  0
    1.1543   -8.0873   -0.9132 H   0  0  0  0  0  0
   -2.1688   -8.5927   -2.8428 C   0  0  0  0  0  0
   -1.2513   -9.0840   -3.1992 H   0  0  0  0  0  0
   -2.6840   -9.2513   -2.1281 H   0  0  0  0  0  0
   -2.8313   -8.3889   -3.6970 H   0  0  0  0  0  0
   -1.9088   -7.6459   -2.3470 H   0  0  0  0  0  0
  1  2  1  0  0  0
  1  3  1  0  0  0
  1  4  1  0  0  0
  1  5  1  0  0  0
  6  7  1  0  0  0
  6  8  1  0  0  0
  6  9  1  0  0  0
  6 10  1  0  0  0
M  END
$$$$
