


 10  8  0  0  1  0            999 V2000
   -4.9064    0.4198    2.2821 C   0  0  0  0  0  0
   -4.9265    0.0084    1.2621 H   0  0  0  0  0  0
   -3.9119    0.2584    2.7236 H   0  0  0  0  0  0
   -5.6665   -0.0851    2.8964 H   0  0  0  0  0  0
   -5.1211    1.4980    2.2470 H   0  0  0  0  0  0
   -7.3517   -0.6722    4.7577 C   0  0  0  0  0  0
   -7.3114   -1.5712    5.3904 H   0  0  0  0  0  0
   -6.6022    0.0545    5.1042 H   0  0  0  0  0  0
   -8.3541   -0.2236    4.8211 H   0  0  0  0  0  0
   -7.1394   -0.9484    3.7143 H   0  0  0  0  0  0
  1  2  1  0  0  0
  1  3  1  0  0  0
  1  4  1  0  0  0
  1  5  1  0  0  0
  6  7  1  0  0  0
  6  8  1  0  0  0
  6  9  1  0  0  0
  6 10  1  0  0  0
M  END
$$$$
