


 10  8  0  0  1  0            999 V2000
    4.6552    2.3790    2.5200 C   0  0  0  0  0  0
    5.0407    2.0889    3.5086 H   0  0  0  0  0  0
    3.7784    3.0315    2.6449 H   0  0  0  0  0  0
    4.3648    1.4776    1.9604 H   0  0  0  0  0  0
    5.4372    2.9183    1.9654 H   0  0  0  0  0  0
    3.2782   -0.5173   -5.3323 C   0  0  0  0  0  0
    2.2443   -0.3376   -5.6619 H   0  0  0  0  0  0
    3.2798   -0.8125   -4.2726 H   0  0  0  0  0  0
    3.8684    0.4025   -5.4576 H   0  0  0  0  0  0
    3.7214   -1.3220   -5.9374 H   0  0  0  0  0  0
  1  2  1  0  0  0
  1  3  1  0  0  0
  1  4  1  0  0  0
  1  5  1  0  0  0
  6  7  1  0  0  0
  6  8  1  0  0  0
  6  9  1  0  0  0
  6 10  1  0  0  0
M  END
$$$$
