


 10  8  0  0  1  0            999 V2000
   -0.8516    2.4214    2.6681 C   0  0  0  0  0  0
   -1.8952    2.7688    2.6535 H   0  0  0  0  0  0
   -0.3616    2.6910    1.7208 H   0  0  0  0  0  0
   -0.8302    1.3289    2.7940 H   0  0  0  0  0  0
   -0.3185    2.8969    3.5046 H   0  0  0  0  0  0
    4.9385   -0.7484   -3.6915 C   0  0  0  0  0  0
    5.7839   -1.4323   -3.8574 H   0  0  0  0  0  0
    5.2035   -0.0194   -2.9115 H   0  0  0  0  0  0
    4.0579   -1.3244   -3.3710 H   0  0  0  0  0  0
    4.7078   -0.2169   -4.6266 H   0  0  0  0  0  0
  1  2  1  0  0  0
  1  3  1  0  0  0
  1  4  1  0  0  0
  1  5  1  0  0  0
  6  7  1  0  0  0
  6  8  1  0  0  0
  6  9  1  0  0  0
  6 10  1  0  0  0
M  END
$$$$
