


 10  8  0  0  1  0            999 V2000
  -11.7892   10.8575   -8.1569 C   0  0  0  0  0  0
  -11.9770   10.4572   -7.1497 H   0  0  0  0  0  0
  -10.8826   11.4803   -8.1412 H   0  0  0  0  0  0
  -12.6475   11.4672   -8.4753 H   0  0  0  0  0  0
  -11.6496   10.0250   -8.8622 H   0  0  0  0  0  0
   -9.7843    8.3582   -6.8475 C   0  0  0  0  0  0
   -9.9249    9.3262   -7.3507 H   0  0  0  0  0  0
  -10.7616    7.8746   -6.7021 H   0  0  0  0  0  0
   -9.3056    8.5188   -5.8703 H   0  0  0  0  0  0
   -9.1446    7.7124   -7.4669 H   0  0  0  0  0  0
  1  2  1  0  0  0
  1  3  1  0  0  0
  1  4  1  0  0  0
  1  5  1  0  0  0
  6  7  1  0  0  0
  6  8  1  0  0  0
  6  9  1  0  0  0
  6 10  1  0  0  0
M  END
$$$$
