


 10  8  0  0  1  0            999 V2000
   13.9954   -5.9936   -0.4149 C   0  0  0  0  0  0
   14.5673   -6.8050   -0.8888 H   0  0  0  0  0  0
   13.1792   -5.6809   -1.0827 H   0  0  0  0  0  0
   14.6608   -5.1387   -0.2240 H   0  0  0  0  0  0
   13.5741   -6.3493    0.5369 H   0  0  0  0  0  0
   10.9849   -6.5218    0.6100 C   0  0  0  0  0  0
   11.8439   -6.5186    1.2971 H   0  0  0  0  0  0
   10.5458   -7.5298    0.5758 H   0  0  0  0  0  0
   11.3196   -6.2333   -0.3973 H   0  0  0  0  0  0
   10.2294   -5.8050    0.9642 H   0  0  0  0  0  0
  1  2  1  0  0  0
  1  3  1  0  0  0
  1  4  1  0  0  0
  1  5  1  0  0  0
  6  7  1  0  0  0
  6  8  1  0  0  0
  6  9  1  0  0  0
  6 10  1  0  0  0
M  END
$$$$
