


 10  8  0  0  1  0            999 V2000
   -2.5395   -9.9072   -5.5781 C   0  0  0  0  0  0
   -3.1172   -9.3519   -4.8245 H   0  0  0  0  0  0
   -1.5279   -9.4815   -5.6523 H   0  0  0  0  0  0
   -3.0415   -9.8320   -6.5540 H   0  0  0  0  0  0
   -2.4712  -10.9644   -5.2819 H   0  0  0  0  0  0
   -8.1869   -9.1214   -4.3919 C   0  0  0  0  0  0
   -8.2546   -9.3084   -5.4738 H   0  0  0  0  0  0
   -8.0881   -8.0407   -4.2115 H   0  0  0  0  0  0
   -7.3087   -9.6430   -3.9836 H   0  0  0  0  0  0
   -9.0964   -9.4937   -3.8978 H   0  0  0  0  0  0
  1  2  1  0  0  0
  1  3  1  0  0  0
  1  4  1  0  0  0
  1  5  1  0  0  0
  6  7  1  0  0  0
  6  8  1  0  0  0
  6  9  1  0  0  0
  6 10  1  0  0  0
M  END
$$$$
