


 10  8  0  0  1  0            999 V2000
   -0.1276   -2.6399   -3.2464 C   0  0  0  0  0  0
   -0.6282   -2.2864   -4.1598 H   0  0  0  0  0  0
    0.9624   -2.5585   -3.3700 H   0  0  0  0  0  0
   -0.3983   -3.6901   -3.0626 H   0  0  0  0  0  0
   -0.4464   -2.0247   -2.3920 H   0  0  0  0  0  0
    1.4747   -5.5755   -1.4682 C   0  0  0  0  0  0
    2.0983   -5.5224   -0.5636 H   0  0  0  0  0  0
    0.6028   -6.2180   -1.2759 H   0  0  0  0  0  0
    2.0643   -5.9959   -2.2963 H   0  0  0  0  0  0
    1.1331   -4.5653   -1.7379 H   0  0  0  0  0  0
  1  2  1  0  0  0
  1  3  1  0  0  0
  1  4  1  0  0  0
  1  5  1  0  0  0
  6  7  1  0  0  0
  6  8  1  0  0  0
  6  9  1  0  0  0
  6 10  1  0  0  0
M  END
$$$$
