


 10  8  0  0  1  0            999 V2000
   -3.5951    0.2343   -2.9814 C   0  0  0  0  0  0
   -3.6842   -0.6514   -2.3352 H   0  0  0  0  0  0
   -3.3426    1.1121   -2.3685 H   0  0  0  0  0  0
   -4.5507    0.4098   -3.4972 H   0  0  0  0  0  0
   -2.8026    0.0669   -3.7257 H   0  0  0  0  0  0
    1.4747   -5.5755   -1.4682 C   0  0  0  0  0  0
    2.0983   -5.5224   -0.5636 H   0  0  0  0  0  0
    0.6028   -6.2180   -1.2759 H   0  0  0  0  0  0
    2.0643   -5.9959   -2.2963 H   0  0  0  0  0  0
    1.1331   -4.5653   -1.7379 H   0  0  0  0  0  0
  1  2  1  0  0  0
  1  3  1  0  0  0
  1  4  1  0  0  0
  1  5  1  0  0  0
  6  7  1  0  0  0
  6  8  1  0  0  0
  6  9  1  0  0  0
  6 10  1  0  0  0
M  END
$$$$
