


 10  8  0  0  1  0            999 V2000
   -1.3578   -9.5860    7.7073 C   0  0  0  0  0  0
   -1.7406   -9.2959    8.6969 H   0  0  0  0  0  0
   -2.2012   -9.7395    7.0180 H   0  0  0  0  0  0
   -0.7821  -10.5191    7.7958 H   0  0  0  0  0  0
   -0.7067   -8.7895    7.3181 H   0  0  0  0  0  0
   -0.0568   -6.9714    5.6808 C   0  0  0  0  0  0
    0.5624   -7.8625    5.5005 H   0  0  0  0  0  0
   -1.1195   -7.2558    5.6765 H   0  0  0  0  0  0
    0.1276   -6.2302    4.8892 H   0  0  0  0  0  0
    0.2021   -6.5364    6.6573 H   0  0  0  0  0  0
  1  2  1  0  0  0
  1  3  1  0  0  0
  1  4  1  0  0  0
  1  5  1  0  0  0
  6  7  1  0  0  0
  6  8  1  0  0  0
  6  9  1  0  0  0
  6 10  1  0  0  0
M  END
$$$$
