


 10  8  0  0  1  0            999 V2000
   -0.0524    1.2659   -4.0835 C   0  0  0  0  0  0
   -0.6218    0.8857   -3.2226 H   0  0  0  0  0  0
   -0.0726    2.3658   -4.0802 H   0  0  0  0  0  0
   -0.5035    0.8937   -5.0151 H   0  0  0  0  0  0
    0.9891    0.9184   -4.0166 H   0  0  0  0  0  0
    3.9576   -2.3703   -3.3334 C   0  0  0  0  0  0
    3.9648   -3.3954   -3.7323 H   0  0  0  0  0  0
    4.9180   -1.8827   -3.5566 H   0  0  0  0  0  0
    3.8066   -2.4015   -2.2442 H   0  0  0  0  0  0
    3.1403   -1.8010   -3.8001 H   0  0  0  0  0  0
  1  2  1  0  0  0
  1  3  1  0  0  0
  1  4  1  0  0  0
  1  5  1  0  0  0
  6  7  1  0  0  0
  6  8  1  0  0  0
  6  9  1  0  0  0
  6 10  1  0  0  0
M  END
$$$$
