


 10  8  0  0  1  0            999 V2000
    4.9821   -4.4319   -1.2927 C   0  0  0  0  0  0
    5.6776   -4.9829   -1.9428 H   0  0  0  0  0  0
    5.5302   -3.6478   -0.7497 H   0  0  0  0  0  0
    4.5254   -5.1262   -0.5720 H   0  0  0  0  0  0
    4.1943   -3.9704   -1.9062 H   0  0  0  0  0  0
    5.6661   -5.4161   -5.5764 C   0  0  0  0  0  0
    4.9685   -5.2488   -6.4103 H   0  0  0  0  0  0
    5.2355   -6.1497   -4.8789 H   0  0  0  0  0  0
    5.8411   -4.4671   -5.0484 H   0  0  0  0  0  0
    6.6203   -5.7988   -5.9676 H   0  0  0  0  0  0
  1  2  1  0  0  0
  1  3  1  0  0  0
  1  4  1  0  0  0
  1  5  1  0  0  0
  6  7  1  0  0  0
  6  8  1  0  0  0
  6  9  1  0  0  0
  6 10  1  0  0  0
M  END
$$$$
