


 10  8  0  0  1  0            999 V2000
   -4.2557   -0.2834    1.8012 C   0  0  0  0  0  0
   -4.5425    0.3414    2.6599 H   0  0  0  0  0  0
   -5.0766   -0.3006    1.0691 H   0  0  0  0  0  0
   -4.0499   -1.3077    2.1453 H   0  0  0  0  0  0
   -3.3532    0.1329    1.3300 H   0  0  0  0  0  0
   -3.7429    3.8796    2.9528 C   0  0  0  0  0  0
   -4.0764    2.8739    2.6573 H   0  0  0  0  0  0
   -2.6446    3.9280    2.9152 H   0  0  0  0  0  0
   -4.0845    4.0934    3.9763 H   0  0  0  0  0  0
   -4.1664    4.6239    2.2624 H   0  0  0  0  0  0
  1  2  1  0  0  0
  1  3  1  0  0  0
  1  4  1  0  0  0
  1  5  1  0  0  0
  6  7  1  0  0  0
  6  8  1  0  0  0
  6  9  1  0  0  0
  6 10  1  0  0  0
M  END
$$$$
