


 10  8  0  0  1  0            999 V2000
   11.0435    4.8202    6.3133 C   0  0  0  0  0  0
   10.2036    5.5272    6.2459 H   0  0  0  0  0  0
   10.7950    3.9011    5.7624 H   0  0  0  0  0  0
   11.2330    4.5750    7.3688 H   0  0  0  0  0  0
   11.9436    5.2773    5.8763 H   0  0  0  0  0  0
    9.0037    6.0985    7.6677 C   0  0  0  0  0  0
    8.8198    5.3583    8.4604 H   0  0  0  0  0  0
    9.6226    6.9163    8.0654 H   0  0  0  0  0  0
    8.0441    6.5034    7.3139 H   0  0  0  0  0  0
    9.5286    5.6159    6.8301 H   0  0  0  0  0  0
  1  2  1  0  0  0
  1  3  1  0  0  0
  1  4  1  0  0  0
  1  5  1  0  0  0
  6  7  1  0  0  0
  6  8  1  0  0  0
  6  9  1  0  0  0
  6 10  1  0  0  0
M  END
$$$$
