


 10  8  0  0  1  0            999 V2000
  -12.0524    0.9820    5.2679 C   0  0  0  0  0  0
  -11.9641    1.8490    5.9392 H   0  0  0  0  0  0
  -12.0324    0.0554    5.8604 H   0  0  0  0  0  0
  -11.2126    0.9810    4.5574 H   0  0  0  0  0  0
  -13.0007    1.0423    4.7139 H   0  0  0  0  0  0
  -12.9349    0.1473    8.7781 C   0  0  0  0  0  0
  -13.3237   -0.2750    9.7164 H   0  0  0  0  0  0
  -12.9548    1.2457    8.8338 H   0  0  0  0  0  0
  -13.5600   -0.1887    7.9377 H   0  0  0  0  0  0
  -11.9003   -0.1931    8.6238 H   0  0  0  0  0  0
  1  2  1  0  0  0
  1  3  1  0  0  0
  1  4  1  0  0  0
  1  5  1  0  0  0
  6  7  1  0  0  0
  6  8  1  0  0  0
  6  9  1  0  0  0
  6 10  1  0  0  0
M  END
$$$$
