


  6  4  0  0  1  0            999 V2000
   -3.8213   -3.0389   -1.7037 O   0  0  0  0  0  0
   -2.8585   -2.9779   -1.8974 H   0  0  0  0  0  0
   -3.9897   -4.0009   -1.5836 H   0  0  0  0  0  0
   -3.9327    1.4174   -1.3861 O   0  0  0  0  0  0
   -4.3141    2.2693   -1.0747 H   0  0  0  0  0  0
   -4.6449    1.0108   -1.9299 H   0  0  0  0  0  0
  1  2  1  0  0  0
  1  3  1  0  0  0
  4  5  1  0  0  0
  4  6  1  0  0  0
M  END
$$$$
