


  6  4  0  0  1  0            999 V2000
   -0.9390    2.4837   -0.5978 O   0  0  0  0  0  0
   -0.2375    2.6978   -1.2538 H   0  0  0  0  0  0
   -1.4859    3.3000   -0.5442 H   0  0  0  0  0  0
   -3.4519    3.7248    2.8270 O   0  0  0  0  0  0
   -4.4274    3.6350    2.9189 H   0  0  0  0  0  0
   -3.1873    2.9746    2.2478 H   0  0  0  0  0  0
  1  2  1  0  0  0
  1  3  1  0  0  0
  4  5  1  0  0  0
  4  6  1  0  0  0
M  END
$$$$
