


  6  4  0  0  1  0            999 V2000
    0.3531    2.5594    1.9877 O   0  0  0  0  0  0
   -0.5970    2.7818    2.1144 H   0  0  0  0  0  0
    0.5025    2.6518    1.0195 H   0  0  0  0  0  0
   -2.2172    0.8925   -2.7569 O   0  0  0  0  0  0
   -2.0179    1.7086   -2.2446 H   0  0  0  0  0  0
   -1.3392    0.4759   -2.9114 H   0  0  0  0  0  0
  1  2  1  0  0  0
  1  3  1  0  0  0
  4  5  1  0  0  0
  4  6  1  0  0  0
M  END
$$$$
