


  6  4  0  0  1  0            999 V2000
    5.6488    3.7877   10.9602 O   0  0  0  0  0  0
    6.2433    4.2407   11.6001 H   0  0  0  0  0  0
    5.9069    4.1499   10.0825 H   0  0  0  0  0  0
    1.7312    0.0858    9.1237 O   0  0  0  0  0  0
    1.6322    0.1118    8.1451 H   0  0  0  0  0  0
    2.4505    0.7287    9.3175 H   0  0  0  0  0  0
  1  2  1  0  0  0
  1  3  1  0  0  0
  4  5  1  0  0  0
  4  6  1  0  0  0
M  END
$$$$
