


  6  4  0  0  1  0            999 V2000
    1.2589   -7.9035   -4.7558 O   0  0  0  0  0  0
    1.1846   -8.8819   -4.6822 H   0  0  0  0  0  0
    0.6706   -7.5561   -4.0476 H   0  0  0  0  0  0
    0.8203   -6.0092   -5.4099 O   0  0  0  0  0  0
    1.1918   -5.1313   -5.1658 H   0  0  0  0  0  0
    1.0186   -6.5859   -4.6377 H   0  0  0  0  0  0
  1  2  1  0  0  0
  1  3  1  0  0  0
  4  5  1  0  0  0
  4  6  1  0  0  0
M  END
$$$$
