


  6  4  0  0  1  0            999 V2000
    4.4842    3.3204   -2.5289 O   0  0  0  0  0  0
    4.5213    4.2435   -2.1902 H   0  0  0  0  0  0
    5.4172    3.0997   -2.7504 H   0  0  0  0  0  0
    7.6928    2.4958   -3.0458 O   0  0  0  0  0  0
    8.1392    3.3475   -3.2543 H   0  0  0  0  0  0
    8.1902    1.8220   -3.5624 H   0  0  0  0  0  0
  1  2  1  0  0  0
  1  3  1  0  0  0
  4  5  1  0  0  0
  4  6  1  0  0  0
M  END
$$$$
