


  6  4  0  0  1  0            999 V2000
    3.8370    6.0698   -3.6229 O   0  0  0  0  0  0
    4.7828    6.3243   -3.5281 H   0  0  0  0  0  0
    3.3473    6.7287   -3.0804 H   0  0  0  0  0  0
    4.4233    4.3150   -4.7987 O   0  0  0  0  0  0
    3.8545    4.8789   -4.2272 H   0  0  0  0  0  0
    4.0344    4.4017   -5.6985 H   0  0  0  0  0  0
  1  2  1  0  0  0
  1  3  1  0  0  0
  4  5  1  0  0  0
  4  6  1  0  0  0
M  END
$$$$
