


  6  4  0  0  1  0            999 V2000
    6.0909    4.0488    5.0076 O   0  0  0  0  0  0
    5.3193    3.6136    4.5792 H   0  0  0  0  0  0
    6.5119    3.3375    5.5416 H   0  0  0  0  0  0
    5.2200    0.3863    5.7888 O   0  0  0  0  0  0
    4.8020   -0.4579    5.5046 H   0  0  0  0  0  0
    4.7248    1.0842    5.3030 H   0  0  0  0  0  0
  1  2  1  0  0  0
  1  3  1  0  0  0
  4  5  1  0  0  0
  4  6  1  0  0  0
M  END
$$$$
