


  6  4  0  0  1  0            999 V2000
  -10.0578    4.7325   -8.3353 O   0  0  0  0  0  0
   -9.9056    5.2214   -9.1756 H   0  0  0  0  0  0
   -9.2171    4.8331   -7.8340 H   0  0  0  0  0  0
   -6.4761    3.5107   -7.5256 O   0  0  0  0  0  0
   -6.8877    3.4446   -8.4169 H   0  0  0  0  0  0
   -6.7953    2.7135   -7.0452 H   0  0  0  0  0  0
  1  2  1  0  0  0
  1  3  1  0  0  0
  4  5  1  0  0  0
  4  6  1  0  0  0
M  END
$$$$
