


  6  4  0  0  1  0            999 V2000
   -2.3999   -9.6161    6.5916 O   0  0  0  0  0  0
   -1.8264   -9.5881    5.7925 H   0  0  0  0  0  0
   -1.7713   -9.6046    7.3486 H   0  0  0  0  0  0
   -3.2004   -8.8899    3.4632 O   0  0  0  0  0  0
   -3.8071   -8.6354    2.7315 H   0  0  0  0  0  0
   -3.7748   -8.9229    4.2615 H   0  0  0  0  0  0
  1  2  1  0  0  0
  1  3  1  0  0  0
  4  5  1  0  0  0
  4  6  1  0  0  0
M  END
$$$$
