


  6  4  0  0  1  0            999 V2000
   -0.6417    0.2567    2.7287 O   0  0  0  0  0  0
   -0.4107    0.3280    1.7748 H   0  0  0  0  0  0
   -0.6367   -0.7097    2.9136 H   0  0  0  0  0  0
    1.1319    0.0097    4.9750 O   0  0  0  0  0  0
    1.3734   -0.9316    4.8198 H   0  0  0  0  0  0
    0.2478    0.1114    4.5549 H   0  0  0  0  0  0
  1  2  1  0  0  0
  1  3  1  0  0  0
  4  5  1  0  0  0
  4  6  1  0  0  0
M  END
$$$$
