


  6  4  0  0  1  0            999 V2000
    0.8173    0.8343    2.9990 O   0  0  0  0  0  0
    0.1008    0.6291    2.3566 H   0  0  0  0  0  0
    0.5241    1.6630    3.4413 H   0  0  0  0  0  0
   -1.8188    1.8880   -2.2513 O   0  0  0  0  0  0
   -2.6899    1.5301   -1.9660 H   0  0  0  0  0  0
   -1.7344    1.6142   -3.1926 H   0  0  0  0  0  0
  1  2  1  0  0  0
  1  3  1  0  0  0
  4  5  1  0  0  0
  4  6  1  0  0  0
M  END
$$$$
