


  6  4  0  0  1  0            999 V2000
    3.6585    1.9878    1.4040 O   0  0  0  0  0  0
    3.8787    1.3667    0.6734 H   0  0  0  0  0  0
    2.7297    2.2601    1.2267 H   0  0  0  0  0  0
   -3.8914    1.6552   -0.6636 O   0  0  0  0  0  0
   -3.4585    2.5382   -0.7004 H   0  0  0  0  0  0
   -4.8501    1.8530   -0.5641 H   0  0  0  0  0  0
  1  2  1  0  0  0
  1  3  1  0  0  0
  4  5  1  0  0  0
  4  6  1  0  0  0
M  END
$$$$
