


  6  4  0  0  1  0            999 V2000
    0.0711    1.6665   10.4744 O   0  0  0  0  0  0
    0.8724    1.8979   10.9966 H   0  0  0  0  0  0
    0.3998    1.5503    9.5542 H   0  0  0  0  0  0
   -3.9914    1.5056    9.3635 O   0  0  0  0  0  0
   -3.1462    1.8570    9.7247 H   0  0  0  0  0  0
   -3.7818    1.2634    8.4331 H   0  0  0  0  0  0
  1  2  1  0  0  0
  1  3  1  0  0  0
  4  5  1  0  0  0
  4  6  1  0  0  0
M  END
$$$$
