


  6  4  0  0  1  0            999 V2000
    7.1502   -2.4002   -4.6633 O   0  0  0  0  0  0
    7.6215   -3.0243   -5.2605 H   0  0  0  0  0  0
    7.5978   -1.5355   -4.8051 H   0  0  0  0  0  0
    8.7656   -5.3344   -6.8106 O   0  0  0  0  0  0
    8.6163   -6.2652   -6.5284 H   0  0  0  0  0  0
    9.6039   -5.0721   -6.3671 H   0  0  0  0  0  0
  1  2  1  0  0  0
  1  3  1  0  0  0
  4  5  1  0  0  0
  4  6  1  0  0  0
M  END
$$$$
