


  6  4  0  0  1  0            999 V2000
    2.4612   10.0239   -4.0622 O   0  0  0  0  0  0
    2.6397    9.4059   -3.3175 H   0  0  0  0  0  0
    3.0743    9.7358   -4.7759 H   0  0  0  0  0  0
    5.1032    9.5402   -5.5101 O   0  0  0  0  0  0
    5.6732    8.7508   -5.3681 H   0  0  0  0  0  0
    5.2945    9.8214   -6.4334 H   0  0  0  0  0  0
  1  2  1  0  0  0
  1  3  1  0  0  0
  4  5  1  0  0  0
  4  6  1  0  0  0
M  END
$$$$
