


  6  4  0  0  1  0            999 V2000
    1.1494    2.4843    1.0266 O   0  0  0  0  0  0
    0.3774    2.0198    0.6310 H   0  0  0  0  0  0
    0.8339    3.4038    1.1795 H   0  0  0  0  0  0
   -1.5182    2.3611   -3.9455 O   0  0  0  0  0  0
   -1.1513    1.4540   -3.8412 H   0  0  0  0  0  0
   -1.1049    2.7025   -4.7707 H   0  0  0  0  0  0
  1  2  1  0  0  0
  1  3  1  0  0  0
  4  5  1  0  0  0
  4  6  1  0  0  0
M  END
$$$$
