


  6  4  0  0  1  0            999 V2000
   -2.3999   -9.6161    6.5916 O   0  0  0  0  0  0
   -1.8264   -9.5881    5.7925 H   0  0  0  0  0  0
   -1.7713   -9.6046    7.3486 H   0  0  0  0  0  0
   -3.1694   -8.9127    3.5556 O   0  0  0  0  0  0
   -3.7761   -8.6582    2.8238 H   0  0  0  0  0  0
   -3.7438   -8.9457    4.3538 H   0  0  0  0  0  0
  1  2  1  0  0  0
  1  3  1  0  0  0
  4  5  1  0  0  0
  4  6  1  0  0  0
M  END
$$$$
