


  6  4  0  0  1  0            999 V2000
    2.4612   10.0239   -4.0622 O   0  0  0  0  0  0
    2.6397    9.4059   -3.3175 H   0  0  0  0  0  0
    3.0743    9.7358   -4.7759 H   0  0  0  0  0  0
    5.5499    9.4771   -5.7255 O   0  0  0  0  0  0
    6.1199    8.6877   -5.5835 H   0  0  0  0  0  0
    5.7413    9.7583   -6.6488 H   0  0  0  0  0  0
  1  2  1  0  0  0
  1  3  1  0  0  0
  4  5  1  0  0  0
  4  6  1  0  0  0
M  END
$$$$
