


  6  4  0  0  1  0            999 V2000
    6.3910   -1.2248    8.4290 O   0  0  0  0  0  0
    6.5992   -0.8356    9.3084 H   0  0  0  0  0  0
    6.5514   -2.1892    8.5404 H   0  0  0  0  0  0
    7.8496    5.1608    6.1952 O   0  0  0  0  0  0
    7.5587    4.3025    6.5784 H   0  0  0  0  0  0
    8.4370    4.9117    5.4460 H   0  0  0  0  0  0
  1  2  1  0  0  0
  1  3  1  0  0  0
  4  5  1  0  0  0
  4  6  1  0  0  0
M  END
$$$$
