


  6  4  0  0  1  0            999 V2000
   -1.7986    0.5892   -1.9156 O   0  0  0  0  0  0
   -1.4575   -0.0154   -2.6130 H   0  0  0  0  0  0
   -2.3077    1.2728   -2.4072 H   0  0  0  0  0  0
   -1.6179   -2.6678    0.7264 O   0  0  0  0  0  0
   -0.7593   -2.1946    0.6424 H   0  0  0  0  0  0
   -1.6009   -3.0537    1.6314 H   0  0  0  0  0  0
  1  2  1  0  0  0
  1  3  1  0  0  0
  4  5  1  0  0  0
  4  6  1  0  0  0
M  END
$$$$
