


  6  4  0  0  1  0            999 V2000
   -1.4514    8.6343   -9.4016 O   0  0  0  0  0  0
   -0.7510    8.0271   -9.7318 H   0  0  0  0  0  0
   -1.6722    8.2941   -8.5051 H   0  0  0  0  0  0
   -1.8546    7.2476   -6.3508 O   0  0  0  0  0  0
   -1.0784    7.5872   -5.8503 H   0  0  0  0  0  0
   -1.6469    6.3005   -6.5180 H   0  0  0  0  0  0
  1  2  1  0  0  0
  1  3  1  0  0  0
  4  5  1  0  0  0
  4  6  1  0  0  0
M  END
$$$$
