


  6  4  0  0  1  0            999 V2000
   -3.8608   -0.5251   -0.2205 O   0  0  0  0  0  0
   -4.7538   -0.7977   -0.5311 H   0  0  0  0  0  0
   -3.3281   -1.3522   -0.2403 H   0  0  0  0  0  0
   -2.4215   -2.2108    2.3352 O   0  0  0  0  0  0
   -1.9663   -1.3387    2.3584 H   0  0  0  0  0  0
   -1.6930   -2.8691    2.2704 H   0  0  0  0  0  0
  1  2  1  0  0  0
  1  3  1  0  0  0
  4  5  1  0  0  0
  4  6  1  0  0  0
M  END
$$$$
