


 20 18  0  0  1  0            999 V2000
    1.2266    2.1027    3.2750 C   0  0  0  0  0  0
    1.1709    1.1362    2.1144 C   0  0  0  0  0  0
    2.0810    0.3586    1.8781 O   0  0  0  0  0  0
   -0.0769    1.1883    1.2633 C   0  0  0  0  0  0
    2.1703    1.9803    3.8327 H   0  0  0  0  0  0
    0.3846    1.9222    3.9642 H   0  0  0  0  0  0
    1.1660    3.1417    2.9099 H   0  0  0  0  0  0
   -0.9661    0.9608    1.8750 H   0  0  0  0  0  0
   -0.1993    2.1927    0.8244 H   0  0  0  0  0  0
   -0.0154    0.4517    0.4445 H   0  0  0  0  0  0
    2.5877    1.2701   -1.3815 C   0  0  0  0  0  0
    3.3883    2.8883   -1.4279 S   0  0  0  0  0  0
    2.8521    3.6845    0.3703 S   0  0  0  0  0  0
    4.1098    3.0083    1.4760 C   0  0  0  0  0  0
    2.7927    0.7725   -2.3443 H   0  0  0  0  0  0
    1.4955    1.3642   -1.2596 H   0  0  0  0  0  0
    2.9792    0.6367   -0.5677 H   0  0  0  0  0  0
    4.0637    1.9078    1.5330 H   0  0  0  0  0  0
    5.1248    3.3020    1.1594 H   0  0  0  0  0  0
    3.9218    3.4208    2.4815 H   0  0  0  0  0  0
  1  2  1  0  0  0
  2  3  2  0  0  0
  2  4  1  0  0  0
  1  5  1  0  0  0
  1  6  1  0  0  0
  1  7  1  0  0  0
  4  8  1  0  0  0
  4  9  1  0  0  0
  4 10  1  0  0  0
 11 12  1  0  0  0
 12 13  1  0  0  0
 13 14  1  0  0  0
 11 15  1  0  0  0
 11 16  1  0  0  0
 11 17  1  0  0  0
 14 18  1  0  0  0
 14 19  1  0  0  0
 14 20  1  0  0  0
M  END
$$$$
