


 23 21  0  0  1  0            999 V2000
   -0.4838    4.2127    0.0552 C   0  0  0  0  0  0
   -0.1759    4.3004    1.5339 C   0  0  0  0  0  0
    0.6689    5.0519    2.0004 O   0  0  0  0  0  0
   -0.9195    3.4681    2.3226 N   0  0  0  0  0  0
    0.1641    4.9179   -0.4920 H   0  0  0  0  0  0
   -1.5365    4.4751   -0.1439 H   0  0  0  0  0  0
   -0.2968    3.1947   -0.3261 H   0  0  0  0  0  0
   -1.6254    2.8406    1.9295 H   0  0  0  0  0  0
   -0.7547    3.4841    3.3321 H   0  0  0  0  0  0
    3.6254    2.4819    0.3839 C   0  0  0  0  0  0
    2.9756    1.4630    1.3195 C   0  0  0  0  0  0
    3.2556    1.7581    2.7913 C   0  0  0  0  0  0
    2.6057    0.7391    3.7268 C   0  0  0  0  0  0
    3.4064    2.2437   -0.6705 H   0  0  0  0  0  0
    4.7194    2.4807    0.5250 H   0  0  0  0  0  0
    3.2436    3.4934    0.6027 H   0  0  0  0  0  0
    1.8803    1.4606    1.1584 H   0  0  0  0  0  0
    3.3531    0.4501    1.0808 H   0  0  0  0  0  0
    4.3508    1.7605    2.9524 H   0  0  0  0  0  0
    2.8781    2.7710    3.0300 H   0  0  0  0  0  0
    2.9875   -0.2723    3.5080 H   0  0  0  0  0  0
    1.5117    0.7403    3.5858 H   0  0  0  0  0  0
    2.8247    0.9774    4.7813 H   0  0  0  0  0  0
  1  2  1  0  0  0
  2  3  2  0  0  0
  2  4  1  0  0  0
  1  5  1  0  0  0
  1  6  1  0  0  0
  1  7  1  0  0  0
  4  8  1  0  0  0
  4  9  1  0  0  0
 10 11  1  0  0  0
 11 12  1  0  0  0
 12 13  1  0  0  0
 10 14  1  0  0  0
 10 15  1  0  0  0
 10 16  1  0  0  0
 11 17  1  0  0  0
 11 18  1  0  0  0
 12 19  1  0  0  0
 12 20  1  0  0  0
 13 21  1  0  0  0
 13 22  1  0  0  0
 13 23  1  0  0  0
M  END
$$$$
