


 23 21  0  0  1  0            999 V2000
    1.3993   -4.0134    4.3410 C   0  0  0  0  0  0
    1.0773   -2.9405    3.3442 C   0  0  0  0  0  0
    0.7217   -3.1097    2.1992 O   0  0  0  0  0  0
    1.2341   -1.7044    3.8871 O   0  0  0  0  0  0
    1.2672   -5.0093    3.8855 H   0  0  0  0  0  0
    0.7335   -3.9362    5.2170 H   0  0  0  0  0  0
    2.4435   -3.9188    4.6834 H   0  0  0  0  0  0
    1.0006   -1.0657    3.1594 H   0  0  0  0  0  0
   -1.0630    2.5834   -0.5762 C   0  0  0  0  0  0
   -0.0038    3.4322    0.0691 C   0  0  0  0  0  0
    1.3230    3.4073   -0.1403 C   0  0  0  0  0  0
    2.2380    4.3434    0.6073 C   0  0  0  0  0  0
    2.0312    2.4874   -1.1001 C   0  0  0  0  0  0
   -0.6342    1.8720   -1.3019 H   0  0  0  0  0  0
   -1.7847    3.2306   -1.1023 H   0  0  0  0  0  0
   -1.6019    2.0132    0.1991 H   0  0  0  0  0  0
   -0.3721    4.1612    0.8029 H   0  0  0  0  0  0
    2.9695    3.7658    1.1971 H   0  0  0  0  0  0
    2.7864    4.9838   -0.1038 H   0  0  0  0  0  0
    1.6649    4.9897    1.2932 H   0  0  0  0  0  0
    2.7566    1.8703   -0.5437 H   0  0  0  0  0  0
    1.3359    1.8177   -1.6338 H   0  0  0  0  0  0
    2.5793    3.0903   -1.8436 H   0  0  0  0  0  0
  1  2  1  0  0  0
  2  3  2  0  0  0
  2  4  1  0  0  0
  1  5  1  0  0  0
  1  6  1  0  0  0
  1  7  1  0  0  0
  4  8  1  0  0  0
  9 10  1  0  0  0
 10 11  2  0  0  0
 11 12  1  0  0  0
 11 13  1  0  0  0
  9 14  1  0  0  0
  9 15  1  0  0  0
  9 16  1  0  0  0
 10 17  1  0  0  0
 12 18  1  0  0  0
 12 19  1  0  0  0
 12 20  1  0  0  0
 13 21  1  0  0  0
 13 22  1  0  0  0
 13 23  1  0  0  0
M  END
$$$$
