


 22 21  0  0  1  0            999 V2000
    1.2295    4.8397    1.3934 C   0  0  0  0  0  0
    2.1917    4.0149    0.6609 C   0  0  0  0  0  0
    2.9919    3.3290    0.0522 C   0  0  0  0  0  0
    3.9546    2.5041   -0.6796 C   0  0  0  0  0  0
    1.6472    5.8439    1.5771 H   0  0  0  0  0  0
    0.9884    4.3759    2.3647 H   0  0  0  0  0  0
    0.2973    4.9471    0.8138 H   0  0  0  0  0  0
    4.8591    3.0895   -0.9160 H   0  0  0  0  0  0
    4.2493    1.6307   -0.0738 H   0  0  0  0  0  0
    3.5117    2.1444   -1.6235 H   0  0  0  0  0  0
   -0.6823    1.5331   -0.3205 C   0  0  0  0  0  0
    0.2718    0.7193   -0.9325 C   0  0  0  0  0  0
    1.1759   -0.0032   -0.1530 C   0  0  0  0  0  0
    1.1260    0.0881    1.2385 C   0  0  0  0  0  0
    0.1719    0.9018    1.8505 C   0  0  0  0  0  0
   -0.7322    1.6244    1.0710 C   0  0  0  0  0  0
   -1.3937    2.1017   -0.9339 H   0  0  0  0  0  0
    0.3111    0.6475   -2.0275 H   0  0  0  0  0  0
    1.9267   -0.6436   -0.6346 H   0  0  0  0  0  0
    1.8374   -0.4805    1.8518 H   0  0  0  0  0  0
    0.1326    0.9737    2.9454 H   0  0  0  0  0  0
   -1.4830    2.2648    1.5526 H   0  0  0  0  0  0
  1  2  1  0  0  0
  2  3  3  0  0  0
  3  4  1  0  0  0
  1  5  1  0  0  0
  1  6  1  0  0  0
  1  7  1  0  0  0
  4  8  1  0  0  0
  4  9  1  0  0  0
  4 10  1  0  0  0
 11 12  1  0  0  0
 12 13  2  0  0  0
 13 14  1  0  0  0
 14 15  2  0  0  0
 15 16  1  0  0  0
 11 16  2  0  0  0
 11 17  1  0  0  0
 12 18  1  0  0  0
 13 19  1  0  0  0
 14 20  1  0  0  0
 15 21  1  0  0  0
 16 22  1  0  0  0
M  END
$$$$
