


 13 11  0  0  1  0            999 V2000
    0.3227    1.3654    2.8152 C   0  0  0  0  0  0
    0.8458    0.0290    1.7279 S   0  0  0  0  0  0
    2.6251    0.2660    1.8678 C   0  0  0  0  0  0
   -0.7798    1.3675    2.8481 H   0  0  0  0  0  0
    0.6655    2.3456    2.4434 H   0  0  0  0  0  0
    0.7050    1.2246    3.8403 H   0  0  0  0  0  0
    2.9282    1.2652    1.5124 H   0  0  0  0  0  0
    2.9677    0.1442    2.9092 H   0  0  0  0  0  0
    3.1214   -0.4953    1.2428 H   0  0  0  0  0  0
    1.3941    2.2633    0.4677 N   0  0  0  0  0  0
    1.9970    2.1998   -0.3588 H   0  0  0  0  0  0
    0.6038    2.8650    0.2145 H   0  0  0  0  0  0
    1.0139    1.3256    0.6319 H   0  0  0  0  0  0
  1  2  1  0  0  0
  2  3  1  0  0  0
  1  4  1  0  0  0
  1  5  1  0  0  0
  1  6  1  0  0  0
  3  7  1  0  0  0
  3  8  1  0  0  0
  3  9  1  0  0  0
 10 11  1  0  0  0
 10 12  1  0  0  0
 10 13  1  0  0  0
M  END
$$$$
