


 33 33  0  0  1  0            999 V2000
   -2.6915   -2.7899   -1.0747 C   0  0  0  0  0  0
   -3.3693   -1.4156   -1.1456 C   0  0  0  0  0  0
   -3.2472   -1.0569   -2.6268 C   0  0  0  0  0  0
   -1.7993   -1.4472   -2.9495 C   0  0  0  0  0  0
   -1.5289   -2.7149   -2.0983 C   0  0  0  0  0  0
   -3.4175   -3.5651   -1.3868 H   0  0  0  0  0  0
   -2.3435   -3.0457   -0.0554 H   0  0  0  0  0  0
   -4.4121   -1.4268   -0.7743 H   0  0  0  0  0  0
   -2.8048   -0.6796   -0.5414 H   0  0  0  0  0  0
   -3.4699    0.0047   -2.8479 H   0  0  0  0  0  0
   -3.9503   -1.6778   -3.2147 H   0  0  0  0  0  0
   -1.1267   -0.6286   -2.6285 H   0  0  0  0  0  0
   -1.6302   -1.6176   -4.0301 H   0  0  0  0  0  0
   -0.5508   -2.6396   -1.5854 H   0  0  0  0  0  0
   -1.5076   -3.6224   -2.7319 H   0  0  0  0  0  0
    2.0329    3.7816    1.7937 C   0  0  0  0  0  0
    1.8741    3.0668    3.1372 C   0  0  0  0  0  0
    2.4009    1.6322    3.0604 C   0  0  0  0  0  0
    3.8585    1.6080    2.5957 C   0  0  0  0  0  0
    4.0174    2.3228    1.2522 C   0  0  0  0  0  0
    3.4906    3.7573    1.3290 C   0  0  0  0  0  0
    1.6750    4.8262    1.8726 H   0  0  0  0  0  0
    1.4076    3.2677    1.0385 H   0  0  0  0  0  0
    2.4480    3.6184    3.9065 H   0  0  0  0  0  0
    0.8110    3.0668    3.4461 H   0  0  0  0  0  0
    1.7851    1.0627    2.3380 H   0  0  0  0  0  0
    2.3064    1.1378    4.0464 H   0  0  0  0  0  0
    4.2165    0.5634    2.5168 H   0  0  0  0  0  0
    4.4838    2.1219    3.3510 H   0  0  0  0  0  0
    3.4435    1.7711    0.4829 H   0  0  0  0  0  0
    5.0805    2.3228    0.9434 H   0  0  0  0  0  0
    3.5850    4.2517    0.3431 H   0  0  0  0  0  0
    4.1063    4.3268    2.0515 H   0  0  0  0  0  0
  1  2  1  0  0  0
  2  3  1  0  0  0
  3  4  1  0  0  0
  4  5  1  0  0  0
  1  5  1  0  0  0
  1  6  1  0  0  0
  1  7  1  0  0  0
  2  8  1  0  0  0
  2  9  1  0  0  0
  3 10  1  0  0  0
  3 11  1  0  0  0
  4 12  1  0  0  0
  4 13  1  0  0  0
  5 14  1  0  0  0
  5 15  1  0  0  0
 16 17  1  0  0  0
 17 18  1  0  0  0
 18 19  1  0  0  0
 19 20  1  0  0  0
 20 21  1  0  0  0
 16 21  1  0  0  0
 16 22  1  0  0  0
 16 23  1  0  0  0
 17 24  1  0  0  0
 17 25  1  0  0  0
 18 26  1  0  0  0
 18 27  1  0  0  0
 19 28  1  0  0  0
 19 29  1  0  0  0
 20 30  1  0  0  0
 20 31  1  0  0  0
 21 32  1  0  0  0
 21 33  1  0  0  0
M  END
$$$$
