


 30 28  0  0  1  0            999 V2000
   -4.8434   -3.6619    3.9311 C   0  0  0  0  0  0
   -3.7820   -2.5564    3.8380 C   0  0  0  0  0  0
   -3.2284   -2.5001    5.1855 O   0  0  0  0  0  0
   -2.5613   -1.2685    5.4882 C   0  0  0  0  0  0
   -1.7520   -1.6697    6.7897 C   0  0  0  0  0  0
   -5.1434   -3.8804    2.8924 H   0  0  0  0  0  0
   -5.7193   -3.2708    4.4755 H   0  0  0  0  0  0
   -4.5226   -4.6023    4.4099 H   0  0  0  0  0  0
   -2.9886   -2.7126    3.0820 H   0  0  0  0  0  0
   -4.3200   -1.6256    3.5740 H   0  0  0  0  0  0
   -1.9850   -0.8827    4.6253 H   0  0  0  0  0  0
   -3.3204   -0.5075    5.7532 H   0  0  0  0  0  0
   -1.1988   -0.8519    7.2814 H   0  0  0  0  0  0
   -1.0305   -2.4410    6.4716 H   0  0  0  0  0  0
   -2.4444   -2.1166    7.5229 H   0  0  0  0  0  0
   -3.0115    2.7791   -3.6422 C   0  0  0  0  0  0
   -2.2070    3.4522   -2.4734 C   0  0  0  0  0  0
   -3.1033    4.1778   -1.6550 O   0  0  0  0  0  0
   -2.7604    4.3693   -0.3170 C   0  0  0  0  0  0
   -3.8272    5.3614    0.3204 C   0  0  0  0  0  0
   -2.2255    2.2452   -4.2024 H   0  0  0  0  0  0
   -3.5739    3.4160   -4.3455 H   0  0  0  0  0  0
   -3.7028    2.0357   -3.2109 H   0  0  0  0  0  0
   -1.6829    2.6133   -1.9764 H   0  0  0  0  0  0
   -1.4402    4.1767   -2.8087 H   0  0  0  0  0  0
   -2.5840    3.4454    0.2668 H   0  0  0  0  0  0
   -1.8214    4.9556   -0.3112 H   0  0  0  0  0  0
   -3.5841    6.3456   -0.1143 H   0  0  0  0  0  0
   -3.8226    5.4515    1.4197 H   0  0  0  0  0  0
   -4.8412    5.0739   -0.0048 H   0  0  0  0  0  0
  1  2  1  0  0  0
  2  3  1  0  0  0
  3  4  1  0  0  0
  4  5  1  0  0  0
  1  6  1  0  0  0
  1  7  1  0  0  0
  1  8  1  0  0  0
  2  9  1  0  0  0
  2 10  1  0  0  0
  4 11  1  0  0  0
  4 12  1  0  0  0
  5 13  1  0  0  0
  5 14  1  0  0  0
  5 15  1  0  0  0
 16 17  1  0  0  0
 17 18  1  0  0  0
 18 19  1  0  0  0
 19 20  1  0  0  0
 16 21  1  0  0  0
 16 22  1  0  0  0
 16 23  1  0  0  0
 17 24  1  0  0  0
 17 25  1  0  0  0
 19 26  1  0  0  0
 19 27  1  0  0  0
 20 28  1  0  0  0
 20 29  1  0  0  0
 20 30  1  0  0  0
M  END
$$$$
