


 30 28  0  0  1  0            999 V2000
  -11.1138    1.0794  -12.8318 C   0  0  0  0  0  0
  -11.6867   -0.2495  -12.3728 C   0  0  0  0  0  0
  -10.6202   -1.0083  -11.7797 O   0  0  0  0  0  0
  -11.1011   -2.1375  -11.0944 C   0  0  0  0  0  0
   -9.8692   -3.0285  -10.7545 C   0  0  0  0  0  0
  -10.2169    0.8317  -13.4240 H   0  0  0  0  0  0
  -10.8244    1.7816  -12.0319 H   0  0  0  0  0  0
  -11.8439    1.5786  -13.4909 H   0  0  0  0  0  0
  -12.5576   -0.0674  -11.7140 H   0  0  0  0  0  0
  -12.0480   -0.7967  -13.2647 H   0  0  0  0  0  0
  -11.6934   -1.8128  -10.2173 H   0  0  0  0  0  0
  -11.7373   -2.8118  -11.6993 H   0  0  0  0  0  0
   -9.6365   -3.6521  -11.6341 H   0  0  0  0  0  0
  -10.0847   -3.6918   -9.9001 H   0  0  0  0  0  0
   -8.9830   -2.4184  -10.5115 H   0  0  0  0  0  0
   -3.7044   -0.1040  -17.4927 C   0  0  0  0  0  0
   -4.1875   -0.1049  -16.0889 C   0  0  0  0  0  0
   -4.9702   -1.2491  -15.8517 O   0  0  0  0  0  0
   -5.3034   -1.6549  -14.5470 C   0  0  0  0  0  0
   -4.0927   -2.2946  -13.8714 C   0  0  0  0  0  0
   -4.4719   -0.1814  -18.2811 H   0  0  0  0  0  0
   -3.0335   -0.9762  -17.5680 H   0  0  0  0  0  0
   -3.1130    0.8108  -17.6659 H   0  0  0  0  0  0
   -3.3321   -0.0438  -15.3889 H   0  0  0  0  0  0
   -4.7233    0.8631  -16.0508 H   0  0  0  0  0  0
   -5.7470   -0.8766  -13.8967 H   0  0  0  0  0  0
   -6.0741   -2.4312  -14.7165 H   0  0  0  0  0  0
   -4.4558   -2.8285  -12.9772 H   0  0  0  0  0  0
   -3.2508   -1.6459  -13.5763 H   0  0  0  0  0  0
   -3.7260   -3.0372  -14.5999 H   0  0  0  0  0  0
  1  2  1  0  0  0
  2  3  1  0  0  0
  3  4  1  0  0  0
  4  5  1  0  0  0
  1  6  1  0  0  0
  1  7  1  0  0  0
  1  8  1  0  0  0
  2  9  1  0  0  0
  2 10  1  0  0  0
  4 11  1  0  0  0
  4 12  1  0  0  0
  5 13  1  0  0  0
  5 14  1  0  0  0
  5 15  1  0  0  0
 16 17  1  0  0  0
 17 18  1  0  0  0
 18 19  1  0  0  0
 19 20  1  0  0  0
 16 21  1  0  0  0
 16 22  1  0  0  0
 16 23  1  0  0  0
 17 24  1  0  0  0
 17 25  1  0  0  0
 19 26  1  0  0  0
 19 27  1  0  0  0
 20 28  1  0  0  0
 20 29  1  0  0  0
 20 30  1  0  0  0
M  END
$$$$
