


 30 28  0  0  1  0            999 V2000
   -6.4999   -7.2069    1.8691 C   0  0  0  0  0  0
   -5.1293   -6.8222    1.4931 C   0  0  0  0  0  0
   -4.7943   -5.5621    2.1355 O   0  0  0  0  0  0
   -3.6424   -4.9743    1.6194 C   0  0  0  0  0  0
   -3.6721   -3.5453    2.2142 C   0  0  0  0  0  0
   -6.8824   -8.0977    1.3430 H   0  0  0  0  0  0
   -7.1750   -6.3594    1.6626 H   0  0  0  0  0  0
   -6.5091   -7.4079    2.9536 H   0  0  0  0  0  0
   -4.4952   -7.6631    1.8342 H   0  0  0  0  0  0
   -5.0669   -6.7801    0.3887 H   0  0  0  0  0  0
   -2.7495   -5.5879    1.8470 H   0  0  0  0  0  0
   -3.7144   -4.8803    0.5188 H   0  0  0  0  0  0
   -4.5015   -2.8931    1.8926 H   0  0  0  0  0  0
   -2.7184   -3.0437    1.9788 H   0  0  0  0  0  0
   -3.7366   -3.6836    3.3066 H   0  0  0  0  0  0
   -6.2853    2.3417   -4.1567 C   0  0  0  0  0  0
   -6.2972    1.8053   -2.7349 C   0  0  0  0  0  0
   -5.0935    1.0889   -2.4826 O   0  0  0  0  0  0
   -5.2170    0.5193   -1.2006 C   0  0  0  0  0  0
   -3.8554   -0.0132   -0.7874 C   0  0  0  0  0  0
   -6.0457    1.5395   -4.8748 H   0  0  0  0  0  0
   -5.5563    3.1592   -4.2863 H   0  0  0  0  0  0
   -7.2925    2.7289   -4.3850 H   0  0  0  0  0  0
   -6.3591    2.5801   -1.9467 H   0  0  0  0  0  0
   -7.1557    1.1194   -2.6009 H   0  0  0  0  0  0
   -5.4477    1.2513   -0.4028 H   0  0  0  0  0  0
   -5.9939   -0.2687   -1.1692 H   0  0  0  0  0  0
   -3.5600   -0.9476   -1.2937 H   0  0  0  0  0  0
   -3.7699   -0.1613    0.3023 H   0  0  0  0  0  0
   -3.1581    0.7862   -1.0896 H   0  0  0  0  0  0
  1  2  1  0  0  0
  2  3  1  0  0  0
  3  4  1  0  0  0
  4  5  1  0  0  0
  1  6  1  0  0  0
  1  7  1  0  0  0
  1  8  1  0  0  0
  2  9  1  0  0  0
  2 10  1  0  0  0
  4 11  1  0  0  0
  4 12  1  0  0  0
  5 13  1  0  0  0
  5 14  1  0  0  0
  5 15  1  0  0  0
 16 17  1  0  0  0
 17 18  1  0  0  0
 18 19  1  0  0  0
 19 20  1  0  0  0
 16 21  1  0  0  0
 16 22  1  0  0  0
 16 23  1  0  0  0
 17 24  1  0  0  0
 17 25  1  0  0  0
 19 26  1  0  0  0
 19 27  1  0  0  0
 20 28  1  0  0  0
 20 29  1  0  0  0
 20 30  1  0  0  0
M  END
$$$$
