


 30 28  0  0  1  0            999 V2000
    2.8923    2.7854    0.3852 C   0  0  0  0  0  0
    1.5753    3.1845    1.0139 C   0  0  0  0  0  0
    1.7555    3.2608    2.4190 O   0  0  0  0  0  0
    0.5579    3.6318    3.0828 C   0  0  0  0  0  0
    0.8349    3.6900    4.5690 C   0  0  0  0  0  0
    2.7875    2.7165   -0.7106 H   0  0  0  0  0  0
    3.2194    1.8047    0.7697 H   0  0  0  0  0  0
    3.6703    3.5319    0.6180 H   0  0  0  0  0  0
    1.2383    4.1657    0.6278 H   0  0  0  0  0  0
    0.7884    2.4421    0.7792 H   0  0  0  0  0  0
    0.2147    4.6158    2.7095 H   0  0  0  0  0  0
   -0.2353    2.8922    2.8609 H   0  0  0  0  0  0
    1.6217    4.4326    4.7839 H   0  0  0  0  0  0
   -0.0784    3.9766    5.1172 H   0  0  0  0  0  0
    1.1708    2.7054    4.9356 H   0  0  0  0  0  0
   -2.9285    0.6006    0.6599 C   0  0  0  0  0  0
   -1.7330   -0.3071    0.4709 C   0  0  0  0  0  0
   -0.9135   -0.2135    1.6250 O   0  0  0  0  0  0
    0.2344   -1.0409    1.5228 C   0  0  0  0  0  0
    1.0501   -0.8831    2.7872 C   0  0  0  0  0  0
   -3.5889    0.5519   -0.2222 H   0  0  0  0  0  0
   -2.5997    1.6447    0.7959 H   0  0  0  0  0  0
   -3.5056    0.2949    1.5488 H   0  0  0  0  0  0
   -2.0565   -1.3561    0.3280 H   0  0  0  0  0  0
   -1.1524   -0.0092   -0.4233 H   0  0  0  0  0  0
   -0.0769   -2.0944    1.3864 H   0  0  0  0  0  0
    0.8271   -0.7474    0.6351 H   0  0  0  0  0  0
    0.4559   -1.1825    3.6669 H   0  0  0  0  0  0
    1.9530   -1.5149    2.7410 H   0  0  0  0  0  0
    1.3618    0.1673    2.9141 H   0  0  0  0  0  0
  1  2  1  0  0  0
  2  3  1  0  0  0
  3  4  1  0  0  0
  4  5  1  0  0  0
  1  6  1  0  0  0
  1  7  1  0  0  0
  1  8  1  0  0  0
  2  9  1  0  0  0
  2 10  1  0  0  0
  4 11  1  0  0  0
  4 12  1  0  0  0
  5 13  1  0  0  0
  5 14  1  0  0  0
  5 15  1  0  0  0
 16 17  1  0  0  0
 17 18  1  0  0  0
 18 19  1  0  0  0
 19 20  1  0  0  0
 16 21  1  0  0  0
 16 22  1  0  0  0
 16 23  1  0  0  0
 17 24  1  0  0  0
 17 25  1  0  0  0
 19 26  1  0  0  0
 19 27  1  0  0  0
 20 28  1  0  0  0
 20 29  1  0  0  0
 20 30  1  0  0  0
M  END
$$$$
