


 30 28  0  0  1  0            999 V2000
    1.2357    2.8456   -2.0010 C   0  0  0  0  0  0
   -0.1965    3.3012   -1.7586 C   0  0  0  0  0  0
   -0.3538    4.3656   -2.7190 O   0  0  0  0  0  0
   -1.6594    4.8534   -2.8061 C   0  0  0  0  0  0
   -1.7725    5.6575   -4.0477 C   0  0  0  0  0  0
    1.4555    2.3546   -2.9639 H   0  0  0  0  0  0
    1.3681    2.1079   -1.1916 H   0  0  0  0  0  0
    1.9581    3.6655   -1.8512 H   0  0  0  0  0  0
   -0.8824    2.4323   -1.7579 H   0  0  0  0  0  0
   -0.2367    3.7625   -0.7531 H   0  0  0  0  0  0
   -2.3386    3.9801   -2.8424 H   0  0  0  0  0  0
   -1.9579    5.4762   -1.9410 H   0  0  0  0  0  0
   -1.2403    5.1413   -4.8643 H   0  0  0  0  0  0
   -1.2898    6.6341   -3.8752 H   0  0  0  0  0  0
   -2.8154    5.8312   -4.3621 H   0  0  0  0  0  0
   -3.9170   -0.1167    7.1974 C   0  0  0  0  0  0
   -4.3398    0.3514    5.7816 C   0  0  0  0  0  0
   -4.0408   -0.6852    4.9029 O   0  0  0  0  0  0
   -4.5269   -0.2010    3.6416 C   0  0  0  0  0  0
   -4.4019   -1.4028    2.6935 C   0  0  0  0  0  0
   -4.2898    0.5354    8.0052 H   0  0  0  0  0  0
   -2.8142   -0.0986    7.2114 H   0  0  0  0  0  0
   -4.2544   -1.1482    7.3941 H   0  0  0  0  0  0
   -5.4465    0.3427    5.7547 H   0  0  0  0  0  0
   -4.0062    1.3854    5.5696 H   0  0  0  0  0  0
   -5.5657    0.1789    3.5968 H   0  0  0  0  0  0
   -3.8644    0.5800    3.2213 H   0  0  0  0  0  0
   -4.3458   -1.0979    1.6350 H   0  0  0  0  0  0
   -5.2912   -2.0411    2.8291 H   0  0  0  0  0  0
   -3.5036   -1.9947    2.9372 H   0  0  0  0  0  0
  1  2  1  0  0  0
  2  3  1  0  0  0
  3  4  1  0  0  0
  4  5  1  0  0  0
  1  6  1  0  0  0
  1  7  1  0  0  0
  1  8  1  0  0  0
  2  9  1  0  0  0
  2 10  1  0  0  0
  4 11  1  0  0  0
  4 12  1  0  0  0
  5 13  1  0  0  0
  5 14  1  0  0  0
  5 15  1  0  0  0
 16 17  1  0  0  0
 17 18  1  0  0  0
 18 19  1  0  0  0
 19 20  1  0  0  0
 16 21  1  0  0  0
 16 22  1  0  0  0
 16 23  1  0  0  0
 17 24  1  0  0  0
 17 25  1  0  0  0
 19 26  1  0  0  0
 19 27  1  0  0  0
 20 28  1  0  0  0
 20 29  1  0  0  0
 20 30  1  0  0  0
M  END
$$$$
