


 20 19  0  0  1  0            999 V2000
    0.8162   -1.2916    0.3177 C   0  0  0  0  0  0
    2.0569   -1.5661   -0.3094 O   0  0  0  0  0  0
    2.7490   -0.3212   -0.3906 C   0  0  0  0  0  0
    1.6104    0.6645   -0.5322 C   0  0  0  0  0  0
    0.6280    0.1127    0.3429 O   0  0  0  0  0  0
    0.7860   -1.6666    1.3588 H   0  0  0  0  0  0
    0.0170   -1.8069   -0.2490 H   0  0  0  0  0  0
    3.4464   -0.3611   -1.2494 H   0  0  0  0  0  0
    3.3480   -0.1325    0.5210 H   0  0  0  0  0  0
    1.2381    0.7191   -1.5733 H   0  0  0  0  0  0
    1.8374    1.6962   -0.2014 H   0  0  0  0  0  0
    0.9097    3.5156    2.7466 C   0  0  0  0  0  0
    1.1838    2.3535    3.6847 C   0  0  0  0  0  0
    1.8831    1.2845    3.0452 O   0  0  0  0  0  0
    1.8554    3.8920    2.3216 H   0  0  0  0  0  0
    0.4166    4.3385    3.2910 H   0  0  0  0  0  0
    0.2535    3.1985    1.9187 H   0  0  0  0  0  0
    1.8452    2.6728    4.5129 H   0  0  0  0  0  0
    0.2395    1.9862    4.1305 H   0  0  0  0  0  0
    1.3220    0.9624    2.3091 H   0  0  0  0  0  0
  1  2  1  0  0  0
  2  3  1  0  0  0
  3  4  1  0  0  0
  4  5  1  0  0  0
  1  5  1  0  0  0
  1  6  1  0  0  0
  1  7  1  0  0  0
  3  8  1  0  0  0
  3  9  1  0  0  0
  4 10  1  0  0  0
  4 11  1  0  0  0
 12 13  1  0  0  0
 13 14  1  0  0  0
 12 15  1  0  0  0
 12 16  1  0  0  0
 12 17  1  0  0  0
 13 18  1  0  0  0
 13 19  1  0  0  0
 14 20  1  0  0  0
M  END
$$$$
