


  7  5  0  0  1  0            999 V2000
    0.0000    0.0000    0.0000 C   0  0  0  0  0  0
    0.3332   -0.3382    1.1035 O   0  0  0  0  0  0
   -0.0228    1.0995   -0.1897 H   0  0  0  0  0  0
   -0.2360   -0.6648   -0.8648 H   0  0  0  0  0  0
   -3.4734   -1.4691    0.5324 O   0  0  0  0  0  0
   -3.9967   -0.8668   -0.0434 H   0  0  0  0  0  0
   -3.6851   -1.1815    1.4494 H   0  0  0  0  0  0
  1  2  2  0  0  0
  1  3  1  0  0  0
  1  4  1  0  0  0
  5  6  1  0  0  0
  5  7  1  0  0  0
M  END
$$$$
