


  7  5  0  0  1  0            999 V2000
    0.0000    0.0000    0.0000 C   0  0  0  0  0  0
    0.7177    0.9420    0.2619 O   0  0  0  0  0  0
    0.0559   -1.0057    0.4804 H   0  0  0  0  0  0
   -0.8009    0.1495   -0.7627 H   0  0  0  0  0  0
    3.5172    2.3241    0.4332 O   0  0  0  0  0  0
    2.7168    1.8129    0.6906 H   0  0  0  0  0  0
    3.2608    3.2659    0.5579 H   0  0  0  0  0  0
  1  2  2  0  0  0
  1  3  1  0  0  0
  1  4  1  0  0  0
  5  6  1  0  0  0
  5  7  1  0  0  0
M  END
$$$$
