


  7  5  0  0  1  0            999 V2000
    0.0000    0.0000    0.0000 C   0  0  0  0  0  0
   -1.0341    0.2478    0.6687 O   0  0  0  0  0  0
    0.5274    0.8765   -0.4461 H   0  0  0  0  0  0
    0.3740   -1.0116   -0.2868 H   0  0  0  0  0  0
    1.3276   -1.9428   -1.7922 O   0  0  0  0  0  0
    1.0698   -2.2718   -2.6830 H   0  0  0  0  0  0
    1.7907   -1.0922   -1.9664 H   0  0  0  0  0  0
  1  2  2  0  0  0
  1  3  1  0  0  0
  1  4  1  0  0  0
  5  6  1  0  0  0
  5  7  1  0  0  0
M  END
$$$$
