


  7  5  0  0  1  0            999 V2000
    0.0000    0.0000    0.0000 C   0  0  0  0  0  0
   -0.0970   -0.9560   -0.7726 O   0  0  0  0  0  0
    0.7100   -0.0286    0.8606 H   0  0  0  0  0  0
   -0.5711    0.9470   -0.1499 H   0  0  0  0  0  0
    1.6975   -1.4088    2.0619 O   0  0  0  0  0  0
    0.9196   -2.0007    1.9488 H   0  0  0  0  0  0
    1.4483   -0.8104    2.8022 H   0  0  0  0  0  0
  1  2  2  0  0  0
  1  3  1  0  0  0
  1  4  1  0  0  0
  5  6  1  0  0  0
  5  7  1  0  0  0
M  END
$$$$
