


  7  5  0  0  1  0            999 V2000
    0.0000    0.0000    0.0000 C   0  0  0  0  0  0
    0.1317   -0.4515   -1.1548 O   0  0  0  0  0  0
    0.8863    0.1648    0.6579 H   0  0  0  0  0  0
   -0.9940    0.2976    0.4110 H   0  0  0  0  0  0
    0.2463    1.1886    2.6495 O   0  0  0  0  0  0
   -0.1695    0.4183    3.0990 H   0  0  0  0  0  0
    1.2137    1.0199    2.7123 H   0  0  0  0  0  0
  1  2  2  0  0  0
  1  3  1  0  0  0
  1  4  1  0  0  0
  5  6  1  0  0  0
  5  7  1  0  0  0
M  END
$$$$
