


  7  5  0  0  1  0            999 V2000
    0.0000    0.0000    0.0000 C   0  0  0  0  0  0
    0.2452   -0.8004    0.9551 O   0  0  0  0  0  0
    0.6899    0.7814   -0.3987 H   0  0  0  0  0  0
   -0.9903   -0.1018   -0.5045 H   0  0  0  0  0  0
   -0.4099    1.5996    3.3273 O   0  0  0  0  0  0
    0.2515    1.5065    4.0499 H   0  0  0  0  0  0
    0.0469    2.1360    2.6404 H   0  0  0  0  0  0
  1  2  2  0  0  0
  1  3  1  0  0  0
  1  4  1  0  0  0
  5  6  1  0  0  0
  5  7  1  0  0  0
M  END
$$$$
