


  7  5  0  0  1  0            999 V2000
    0.0000    0.0000    0.0000 C   0  0  0  0  0  0
   -1.0718    0.2578   -0.4891 O   0  0  0  0  0  0
    0.3859   -1.0450    0.0680 H   0  0  0  0  0  0
    0.6784    0.8111    0.3568 H   0  0  0  0  0  0
   -0.0563   -3.0356    1.6157 O   0  0  0  0  0  0
    0.5615   -3.3530    0.9186 H   0  0  0  0  0  0
   -0.1642   -3.8045    2.2201 H   0  0  0  0  0  0
  1  2  2  0  0  0
  1  3  1  0  0  0
  1  4  1  0  0  0
  5  6  1  0  0  0
  5  7  1  0  0  0
M  END
$$$$
