


  7  5  0  0  1  0            999 V2000
    0.0000    0.0000    0.0000 C   0  0  0  0  0  0
   -1.1987    0.0093   -0.3792 O   0  0  0  0  0  0
    0.4349   -0.8590    0.5644 H   0  0  0  0  0  0
    0.7074    0.8016   -0.3201 H   0  0  0  0  0  0
   -1.7411    0.7457   -3.9103 O   0  0  0  0  0  0
   -1.9188    0.6625   -2.9461 H   0  0  0  0  0  0
   -2.1429   -0.0602   -4.3070 H   0  0  0  0  0  0
  1  2  2  0  0  0
  1  3  1  0  0  0
  1  4  1  0  0  0
  5  6  1  0  0  0
  5  7  1  0  0  0
M  END
$$$$
