


  7  5  0  0  1  0            999 V2000
    0.0000    0.0000    0.0000 C   0  0  0  0  0  0
   -1.1723   -0.2496   -0.3322 O   0  0  0  0  0  0
    0.4673   -0.5389    0.8583 H   0  0  0  0  0  0
    0.5654    0.8667   -0.4179 H   0  0  0  0  0  0
    3.0747    0.6805    3.4706 O   0  0  0  0  0  0
    2.1148    0.8824    3.3926 H   0  0  0  0  0  0
    3.4626    0.9869    2.6197 H   0  0  0  0  0  0
  1  2  2  0  0  0
  1  3  1  0  0  0
  1  4  1  0  0  0
  5  6  1  0  0  0
  5  7  1  0  0  0
M  END
$$$$
