


  7  5  0  0  1  0            999 V2000
    0.0000    0.0000    0.0000 C   0  0  0  0  0  0
   -0.8562   -0.8114   -0.3166 O   0  0  0  0  0  0
    0.8038   -0.1892    0.7507 H   0  0  0  0  0  0
   -0.0524    1.0272   -0.4330 H   0  0  0  0  0  0
   -1.0630   -6.5531   -0.9308 O   0  0  0  0  0  0
   -0.9524   -5.7448   -1.4809 H   0  0  0  0  0  0
   -1.9097   -6.4118   -0.4498 H   0  0  0  0  0  0
  1  2  2  0  0  0
  1  3  1  0  0  0
  1  4  1  0  0  0
  5  6  1  0  0  0
  5  7  1  0  0  0
M  END
$$$$
