


  7  5  0  0  1  0            999 V2000
    0.0000    0.0000    0.0000 C   0  0  0  0  0  0
   -0.5084    0.7851   -0.7795 O   0  0  0  0  0  0
    1.0833   -0.2677   -0.0156 H   0  0  0  0  0  0
   -0.6723   -0.6582    0.6001 H   0  0  0  0  0  0
   -5.2057   -2.8093    2.7002 O   0  0  0  0  0  0
   -5.8849   -3.2826    3.2320 H   0  0  0  0  0  0
   -4.5825   -3.5134    2.4103 H   0  0  0  0  0  0
  1  2  2  0  0  0
  1  3  1  0  0  0
  1  4  1  0  0  0
  5  6  1  0  0  0
  5  7  1  0  0  0
M  END
$$$$
