


  7  5  0  0  1  0            999 V2000
    0.0000    0.0000    0.0000 C   0  0  0  0  0  0
   -1.1534    0.1058   -0.4457 O   0  0  0  0  0  0
    0.2748    0.5457    0.9339 H   0  0  0  0  0  0
    0.8087   -0.5883   -0.4955 H   0  0  0  0  0  0
    2.4104   -1.8664   -0.1099 O   0  0  0  0  0  0
    2.5053   -1.2370   -0.8603 H   0  0  0  0  0  0
    1.9510   -1.3499    0.5904 H   0  0  0  0  0  0
  1  2  2  0  0  0
  1  3  1  0  0  0
  1  4  1  0  0  0
  5  6  1  0  0  0
  5  7  1  0  0  0
M  END
$$$$
