


  7  5  0  0  1  0            999 V2000
    0.0000    0.0000    0.0000 C   0  0  0  0  0  0
    0.7177    0.9420    0.2619 O   0  0  0  0  0  0
    0.0559   -1.0057    0.4804 H   0  0  0  0  0  0
   -0.8009    0.1495   -0.7627 H   0  0  0  0  0  0
   -2.9716    2.6637    1.3203 O   0  0  0  0  0  0
   -2.1135    2.8125    0.8622 H   0  0  0  0  0  0
   -3.4796    3.4931    1.1709 H   0  0  0  0  0  0
  1  2  2  0  0  0
  1  3  1  0  0  0
  1  4  1  0  0  0
  5  6  1  0  0  0
  5  7  1  0  0  0
M  END
$$$$
