


  7  5  0  0  1  0            999 V2000
    0.0000    0.0000    0.0000 C   0  0  0  0  0  0
   -0.0820   -0.9542   -0.7617 O   0  0  0  0  0  0
   -0.8376    0.4322    0.5976 H   0  0  0  0  0  0
    1.0324    0.3249    0.2723 H   0  0  0  0  0  0
   -0.4651   -2.0727   -3.3738 O   0  0  0  0  0  0
   -1.1074   -2.1346   -2.6309 H   0  0  0  0  0  0
    0.0679   -2.8974   -3.3102 H   0  0  0  0  0  0
  1  2  2  0  0  0
  1  3  1  0  0  0
  1  4  1  0  0  0
  5  6  1  0  0  0
  5  7  1  0  0  0
M  END
$$$$
