


  7  5  0  0  1  0            999 V2000
    0.0000    0.0000    0.0000 C   0  0  0  0  0  0
   -1.1098    0.2153    0.4235 O   0  0  0  0  0  0
    0.1372   -0.8350   -0.7276 H   0  0  0  0  0  0
    0.9039    0.6065    0.2462 H   0  0  0  0  0  0
    4.3829   -1.1184    2.4041 O   0  0  0  0  0  0
    4.0693   -1.7912    3.0500 H   0  0  0  0  0  0
    3.8530   -0.3144    2.6064 H   0  0  0  0  0  0
  1  2  2  0  0  0
  1  3  1  0  0  0
  1  4  1  0  0  0
  5  6  1  0  0  0
  5  7  1  0  0  0
M  END
$$$$
