


  7  5  0  0  1  0            999 V2000
    0.0000    0.0000    0.0000 C   0  0  0  0  0  0
    1.0012    0.0002    0.7060 O   0  0  0  0  0  0
   -0.7925   -0.7853   -0.0261 H   0  0  0  0  0  0
   -0.1906    0.9270   -0.5914 H   0  0  0  0  0  0
   -4.4180   -4.5144   -0.2245 O   0  0  0  0  0  0
   -3.8703   -4.1922    0.5268 H   0  0  0  0  0  0
   -4.8181   -3.7007   -0.6067 H   0  0  0  0  0  0
  1  2  2  0  0  0
  1  3  1  0  0  0
  1  4  1  0  0  0
  5  6  1  0  0  0
  5  7  1  0  0  0
M  END
$$$$
