


  7  5  0  0  1  0            999 V2000
    0.0000    0.0000    0.0000 C   0  0  0  0  0  0
   -0.1137   -0.4147    1.1553 O   0  0  0  0  0  0
    0.6189   -0.5350   -0.7591 H   0  0  0  0  0  0
   -0.6254    0.8480   -0.3677 H   0  0  0  0  0  0
    1.3734    2.1206   -1.8943 O   0  0  0  0  0  0
    1.4737    2.8325   -2.5662 H   0  0  0  0  0  0
    1.8687    2.4484   -1.1098 H   0  0  0  0  0  0
  1  2  2  0  0  0
  1  3  1  0  0  0
  1  4  1  0  0  0
  5  6  1  0  0  0
  5  7  1  0  0  0
M  END
$$$$
