


  4  2  0  0  1  0            999 V2000
    0.2211    1.9291   -1.4251 O   0  0  0  0  0  0
    0.0777    2.8958   -1.3097 H   0  0  0  0  0  0
    0.3276    1.8083   -2.3958 H   0  0  0  0  0  0
    0.0000    0.0000    0.0000 Ca  0  0  0  0  0  0
  1  2  1  0  0  0
  1  3  1  0  0  0
M  CHG  1   4   2
M  END
$$$$
