


  4  2  0  0  1  0            999 V2000
   -3.9768   -0.9487    0.4979 O   0  0  0  0  0  0
   -3.5991   -1.6998    1.0092 H   0  0  0  0  0  0
   -4.5746   -0.4924    1.1326 H   0  0  0  0  0  0
    0.0000    0.0000    0.0000 Ca  0  0  0  0  0  0
  1  2  1  0  0  0
  1  3  1  0  0  0
M  CHG  1   4   2
M  END
$$$$
