


  4  2  0  0  1  0            999 V2000
   -0.6219    0.6528    2.2870 O   0  0  0  0  0  0
   -0.9768    1.5672    2.3655 H   0  0  0  0  0  0
   -0.6159    0.3090    3.2090 H   0  0  0  0  0  0
    0.0764   -0.0814   -0.2785 Ca  0  0  0  0  0  0
  1  2  1  0  0  0
  1  3  1  0  0  0
M  CHG  1   4   2
M  END
$$$$
