


 24 24  0  0  1  0            999 V2000
    0.9318    4.6072    0.7773 C   0  0  0  0  0  0
    1.4307    3.4203    1.5627 C   0  0  0  0  0  0
    2.6011    2.7512    1.1877 C   0  0  0  0  0  0
    3.0483    1.6330    1.8916 C   0  0  0  0  0  0
    2.3277    1.1649    2.9903 C   0  0  0  0  0  0
    1.1611    1.8237    3.3786 C   0  0  0  0  0  0
    0.7207    2.9412    2.6693 C   0  0  0  0  0  0
    1.7774    5.1550    0.3286 H   0  0  0  0  0  0
    0.3746    5.2966    1.4337 H   0  0  0  0  0  0
    0.2608    4.2720   -0.0314 H   0  0  0  0  0  0
    3.1761    3.1164    0.3266 H   0  0  0  0  0  0
    3.9709    1.1249    1.5813 H   0  0  0  0  0  0
    2.6786    0.2868    3.5483 H   0  0  0  0  0  0
    0.5897    1.4665    4.2454 H   0  0  0  0  0  0
   -0.1961    3.4571    2.9837 H   0  0  0  0  0  0
   -1.0592    1.4806    0.2344 C   0  0  0  0  0  0
   -1.3847    1.9446   -0.9617 N   0  0  0  0  0  0
   -0.2947    1.6843   -1.7574 C   0  0  0  0  0  0
    0.6980    1.0575   -1.0357 C   0  0  0  0  0  0
    0.1908    0.9363    0.2340 N   0  0  0  0  0  0
    0.6651    0.5136    1.0359 H   0  0  0  0  0  0
   -1.6841    1.5122    1.1270 H   0  0  0  0  0  0
   -0.2793    1.9616   -2.8114 H   0  0  0  0  0  0
    1.6912    0.6970   -1.3034 H   0  0  0  0  0  0
  1  2  1  0  0  0
  2  3  1  0  0  0
  3  4  2  0  0  0
  4  5  1  0  0  0
  5  6  2  0  0  0
  6  7  1  0  0  0
  2  7  2  0  0  0
  1  8  1  0  0  0
  1  9  1  0  0  0
  1 10  1  0  0  0
  3 11  1  0  0  0
  4 12  1  0  0  0
  5 13  1  0  0  0
  6 14  1  0  0  0
  7 15  1  0  0  0
 16 17  2  0  0  0
 17 18  1  0  0  0
 18 19  2  0  0  0
 19 20  1  0  0  0
 20 21  1  0  0  0
 16 20  1  0  0  0
 16 22  1  0  0  0
 18 23  1  0  0  0
 19 24  1  0  0  0
M  END
$$$$
