


 12 10  0  0  1  0            999 V2000
    2.9377    3.6851   -0.8446 Cl  0  0  0  0  0  0
    2.4225    3.4293    0.8224 C   0  0  0  0  0  0
    3.0169    4.6757    1.9193 Cl  0  0  0  0  0  0
    1.3163    3.4120    0.8603 H   0  0  0  0  0  0
    2.7866    2.4419    1.1659 H   0  0  0  0  0  0
    0.0054    2.0406    1.3896 O   0  0  0  0  0  0
    0.6312    1.0039    1.7434 C   0  0  0  0  0  0
    1.8766    0.8058    1.7781 O   0  0  0  0  0  0
   -0.2502   -0.1763    2.2374 C   0  0  0  0  0  0
   -0.4051   -0.0691    3.3242 H   0  0  0  0  0  0
   -1.2346   -0.1741    1.7398 H   0  0  0  0  0  0
    0.2387   -1.1463    2.0457 H   0  0  0  0  0  0
  1  2  1  0  0  0
  2  3  1  0  0  0
  2  4  1  0  0  0
  2  5  1  0  0  0
  6  7  1  0  0  0
  7  8  2  0  0  0
  7  9  1  0  0  0
  9 10  1  0  0  0
  9 11  1  0  0  0
  9 12  1  0  0  0
M  CHG  1   6  -1
M  END
$$$$
