


 24 22  0  0  1  0            999 V2000
    0.5440   -1.3878    3.1173 C   0  0  0  0  0  0
    0.9361   -1.3322    1.6502 C   0  0  0  0  0  0
    1.9318    0.1180    1.1831 S   0  0  0  0  0  0
    0.6554    1.6758    1.5157 S   0  0  0  0  0  0
    1.1271    2.2574    3.1764 C   0  0  0  0  0  0
    2.5252    2.8519    3.2334 C   0  0  0  0  0  0
    1.4378   -1.3545    3.7628 H   0  0  0  0  0  0
   -0.0067   -2.3203    3.3269 H   0  0  0  0  0  0
   -0.1043   -0.5320    3.3697 H   0  0  0  0  0  0
    1.5857   -2.1851    1.3746 H   0  0  0  0  0  0
    0.0449   -1.3623    0.9942 H   0  0  0  0  0  0
    0.3577    3.0175    3.4126 H   0  0  0  0  0  0
    1.0093    1.4244    3.8958 H   0  0  0  0  0  0
    2.6102    3.7079    2.5431 H   0  0  0  0  0  0
    2.7501    3.2004    4.2554 H   0  0  0  0  0  0
    3.2735    2.0937    2.9476 H   0  0  0  0  0  0
    3.4869    2.4556    0.0403 C   0  0  0  0  0  0
    2.0805    2.2812   -0.4411 N   0  0  0  0  0  0
    1.7991    3.0787   -1.0465 H   0  0  0  0  0  0
    1.9883    1.4043   -0.9926 H   0  0  0  0  0  0
    1.4218    2.2327    0.3622 H   0  0  0  0  0  0
    4.1813    2.5065   -0.8152 H   0  0  0  0  0  0
    3.7803    1.6075    0.6816 H   0  0  0  0  0  0
    3.5793    3.3867    0.6243 H   0  0  0  0  0  0
  1  2  1  0  0  0
  2  3  1  0  0  0
  3  4  1  0  0  0
  4  5  1  0  0  0
  5  6  1  0  0  0
  1  7  1  0  0  0
  1  8  1  0  0  0
  1  9  1  0  0  0
  2 10  1  0  0  0
  2 11  1  0  0  0
  5 12  1  0  0  0
  5 13  1  0  0  0
  6 14  1  0  0  0
  6 15  1  0  0  0
  6 16  1  0  0  0
 17 18  1  0  0  0
 18 19  1  0  0  0
 18 20  1  0  0  0
 18 21  1  0  0  0
 17 22  1  0  0  0
 17 23  1  0  0  0
 17 24  1  0  0  0
M  CHG  1  18   1
M  END
$$$$
