


 15 13  0  0  1  0            999 V2000
    0.0000    0.0000    0.0000 C   0  0  0  0  0  0
    0.5726    0.6188    1.2855 C   0  0  0  0  0  0
    0.1940    1.8316    1.7140 C   0  0  0  0  0  0
   -0.8988    2.8059    1.0925 C   0  0  0  0  0  0
   -0.1394   -1.0817    0.1646 H   0  0  0  0  0  0
    0.6632    0.1409   -0.8700 H   0  0  0  0  0  0
   -0.9806    0.4503   -0.2286 H   0  0  0  0  0  0
    1.2872   -0.0444    1.7904 H   0  0  0  0  0  0
    0.8328    2.1627    2.5435 H   0  0  0  0  0  0
   -1.8912    2.4953    1.4602 H   0  0  0  0  0  0
   -0.8558    2.6302    0.0045 H   0  0  0  0  0  0
   -0.7765    3.8861    1.2796 H   0  0  0  0  0  0
   -3.6348    4.5993   -1.8696 O   0  0  0  0  0  0
   -3.1584    3.7388   -1.8394 H   0  0  0  0  0  0
   -3.1401    5.1336   -2.5315 H   0  0  0  0  0  0
  1  2  1  0  0  0
  2  3  2  0  0  0
  3  4  1  0  0  0
  1  5  1  0  0  0
  1  6  1  0  0  0
  1  7  1  0  0  0
  2  8  1  0  0  0
  3  9  1  0  0  0
  4 10  1  0  0  0
  4 11  1  0  0  0
  4 12  1  0  0  0
 13 14  1  0  0  0
 13 15  1  0  0  0
M  END
$$$$
