


 21 20  0  0  1  0            999 V2000
    1.7203    5.5441    2.3485 Br  0  0  0  0  0  0
    1.1694    3.7743    2.6783 C   0  0  0  0  0  0
    1.8832    2.9913    3.5844 C   0  0  0  0  0  0
    1.4749    1.6802    3.8287 C   0  0  0  0  0  0
    0.3597    1.1737    3.1629 C   0  0  0  0  0  0
   -0.3541    1.9567    2.2569 C   0  0  0  0  0  0
    0.0542    3.2678    2.0125 C   0  0  0  0  0  0
   -0.1914   -0.5960    3.4926 Br  0  0  0  0  0  0
    2.7596    3.4044    4.1010 H   0  0  0  0  0  0
    2.0269    1.0511    4.5395 H   0  0  0  0  0  0
   -1.2304    1.5437    1.7402 H   0  0  0  0  0  0
   -0.4978    3.8969    1.3017 H   0  0  0  0  0  0
    2.7153   -0.7809   -2.0332 C   0  0  0  0  0  0
    4.0621    0.1807   -1.3237 S   0  0  0  0  0  0
    4.7651   -1.1001   -0.2715 C   0  0  0  0  0  0
    2.1589   -0.1291   -2.7275 H   0  0  0  0  0  0
    2.0213   -1.1390   -1.2543 H   0  0  0  0  0  0
    3.0935   -1.6517   -2.5948 H   0  0  0  0  0  0
    4.0358   -1.4527    0.4770 H   0  0  0  0  0  0
    5.1080   -1.9654   -0.8635 H   0  0  0  0  0  0
    5.6322   -0.6700    0.2575 H   0  0  0  0  0  0
  1  2  1  0  0  0
  2  3  2  0  0  0
  3  4  1  0  0  0
  4  5  2  0  0  0
  5  6  1  0  0  0
  6  7  2  0  0  0
  2  7  1  0  0  0
  5  8  1  0  0  0
  3  9  1  0  0  0
  4 10  1  0  0  0
  6 11  1  0  0  0
  7 12  1  0  0  0
 13 14  1  0  0  0
 14 15  1  0  0  0
 13 16  1  0  0  0
 13 17  1  0  0  0
 13 18  1  0  0  0
 15 19  1  0  0  0
 15 20  1  0  0  0
 15 21  1  0  0  0
M  END
$$$$
