


 24 24  0  0  1  0            999 V2000
    2.8595   -1.5515    2.1561 C   0  0  0  0  0  0
    2.5906   -3.0153    1.9427 C   0  0  0  0  0  0
    1.6300   -3.5829    1.1459 C   0  0  0  0  0  0
    1.9432   -4.9730    1.2018 N   0  0  0  0  0  0
    1.5311   -5.6731    0.5800 H   0  0  0  0  0  0
    2.9714   -5.0980    1.9810 C   0  0  0  0  0  0
    3.4272   -3.9611    2.5292 N   0  0  0  0  0  0
    2.1079   -0.8101    1.8366 H   0  0  0  0  0  0
    3.8017   -1.3513    1.6188 H   0  0  0  0  0  0
    3.0381   -1.4278    3.2375 H   0  0  0  0  0  0
    0.8451   -3.2002    0.4934 H   0  0  0  0  0  0
    3.4871   -6.0480    2.1212 H   0  0  0  0  0  0
    1.7429    2.7815    5.1428 C   0  0  0  0  0  0
    0.5498    3.7708    5.2528 C   0  0  0  0  0  0
    0.5900    5.1248    5.1785 C   0  0  0  0  0  0
   -0.7250    5.4939    5.1641 N   0  0  0  0  0  0
   -1.0790    6.4402    5.0038 H   0  0  0  0  0  0
   -1.5584    4.4069    5.3245 C   0  0  0  0  0  0
   -0.7426    3.3266    5.3735 N   0  0  0  0  0  0
    2.4559    2.8669    4.3056 H   0  0  0  0  0  0
    1.2677    1.7870    5.1000 H   0  0  0  0  0  0
    2.3013    2.8640    6.0904 H   0  0  0  0  0  0
    1.4558    5.7858    5.1391 H   0  0  0  0  0  0
   -2.6477    4.3715    5.3347 H   0  0  0  0  0  0
  1  2  1  0  0  0
  2  3  2  0  0  0
  3  4  1  0  0  0
  4  5  1  0  0  0
  4  6  1  0  0  0
  6  7  2  0  0  0
  2  7  1  0  0  0
  1  8  1  0  0  0
  1  9  1  0  0  0
  1 10  1  0  0  0
  3 11  1  0  0  0
  6 12  1  0  0  0
 13 14  1  0  0  0
 14 15  2  0  0  0
 15 16  1  0  0  0
 16 17  1  0  0  0
 16 18  1  0  0  0
 18 19  2  0  0  0
 14 19  1  0  0  0
 13 20  1  0  0  0
 13 21  1  0  0  0
 13 22  1  0  0  0
 15 23  1  0  0  0
 18 24  1  0  0  0
M  END
$$$$
