


 24 24  0  0  1  0            999 V2000
    0.0000    0.0000    0.0000 C   0  0  0  0  0  0
    0.2012   -1.0001    1.0198 C   0  0  0  0  0  0
    1.3777   -1.4193    1.4758 C   0  0  0  0  0  0
    1.0489   -2.4076    2.4220 N   0  0  0  0  0  0
    1.6136   -3.0146    3.0213 H   0  0  0  0  0  0
   -0.2774   -2.5522    2.4230 C   0  0  0  0  0  0
   -0.8453   -1.7707    1.5125 N   0  0  0  0  0  0
   -1.0704    0.1585   -0.2137 H   0  0  0  0  0  0
    0.5007   -0.3199   -0.9293 H   0  0  0  0  0  0
    0.4396    0.9582    0.3245 H   0  0  0  0  0  0
    2.3605   -1.0834    1.1450 H   0  0  0  0  0  0
   -0.8220   -3.2643    3.0430 H   0  0  0  0  0  0
    1.9084   -3.8659   -4.1312 C   0  0  0  0  0  0
    2.7551   -2.9543   -3.2665 C   0  0  0  0  0  0
    3.8996   -2.3463   -3.5733 C   0  0  0  0  0  0
    4.1922   -1.6722   -2.4158 N   0  0  0  0  0  0
    4.9297   -1.0232   -2.1302 H   0  0  0  0  0  0
    3.2479   -1.9308   -1.5277 C   0  0  0  0  0  0
    2.4007   -2.7908   -1.9317 N   0  0  0  0  0  0
    2.4853   -4.0074   -5.0606 H   0  0  0  0  0  0
    0.8942   -3.5222   -4.3956 H   0  0  0  0  0  0
    1.8273   -4.8378   -3.6160 H   0  0  0  0  0  0
    4.5265   -2.3778   -4.4644 H   0  0  0  0  0  0
    3.1904   -1.5255   -0.5175 H   0  0  0  0  0  0
  1  2  1  0  0  0
  2  3  2  0  0  0
  3  4  1  0  0  0
  4  5  1  0  0  0
  4  6  1  0  0  0
  6  7  2  0  0  0
  2  7  1  0  0  0
  1  8  1  0  0  0
  1  9  1  0  0  0
  1 10  1  0  0  0
  3 11  1  0  0  0
  6 12  1  0  0  0
 13 14  1  0  0  0
 14 15  2  0  0  0
 15 16  1  0  0  0
 16 17  1  0  0  0
 16 18  1  0  0  0
 18 19  2  0  0  0
 14 19  1  0  0  0
 13 20  1  0  0  0
 13 21  1  0  0  0
 13 22  1  0  0  0
 15 23  1  0  0  0
 18 24  1  0  0  0
M  END
$$$$
