


 24 24  0  0  1  0            999 V2000
    1.5082    4.4345   -5.1918 C   0  0  0  0  0  0
    2.0496    3.3263   -4.2740 C   0  0  0  0  0  0
    2.8814    2.3558   -4.7022 C   0  0  0  0  0  0
    3.0454    1.5319   -3.5384 N   0  0  0  0  0  0
    3.6855    0.7425   -3.4216 H   0  0  0  0  0  0
    2.3798    2.0543   -2.5361 C   0  0  0  0  0  0
    1.7859    3.2397   -2.9104 N   0  0  0  0  0  0
    2.4251    4.7439   -5.7211 H   0  0  0  0  0  0
    1.1439    5.2856   -4.5922 H   0  0  0  0  0  0
    0.7399    4.1769   -5.9401 H   0  0  0  0  0  0
    3.2073    2.2277   -5.7344 H   0  0  0  0  0  0
    2.4520    1.8794   -1.4626 H   0  0  0  0  0  0
    6.4620   -0.4801    0.7296 C   0  0  0  0  0  0
    5.2528    0.0782    1.3351 C   0  0  0  0  0  0
    4.1440    0.6920    0.7066 C   0  0  0  0  0  0
    3.3410    1.0466    1.7752 N   0  0  0  0  0  0
    2.3997    1.4342    1.6750 H   0  0  0  0  0  0
    3.7912    0.5324    2.8917 C   0  0  0  0  0  0
    5.0965    0.1223    2.6851 N   0  0  0  0  0  0
    7.0012   -1.1406    1.4293 H   0  0  0  0  0  0
    7.1385    0.3356    0.4236 H   0  0  0  0  0  0
    6.1879   -1.0642   -0.1650 H   0  0  0  0  0  0
    3.8432    1.0631   -0.2732 H   0  0  0  0  0  0
    3.2490    0.5782    3.8362 H   0  0  0  0  0  0
  1  2  1  0  0  0
  2  3  2  0  0  0
  3  4  1  0  0  0
  4  5  1  0  0  0
  4  6  1  0  0  0
  6  7  2  0  0  0
  2  7  1  0  0  0
  1  8  1  0  0  0
  1  9  1  0  0  0
  1 10  1  0  0  0
  3 11  1  0  0  0
  6 12  1  0  0  0
 13 14  1  0  0  0
 14 15  2  0  0  0
 15 16  1  0  0  0
 16 17  1  0  0  0
 16 18  1  0  0  0
 18 19  2  0  0  0
 14 19  1  0  0  0
 13 20  1  0  0  0
 13 21  1  0  0  0
 13 22  1  0  0  0
 15 23  1  0  0  0
 18 24  1  0  0  0
M  END
$$$$
