


 24 24  0  0  1  0            999 V2000
    1.4029    5.8628    7.7475 C   0  0  0  0  0  0
    0.7928    4.7235    8.4818 C   0  0  0  0  0  0
    0.4761    3.5016    7.9984 C   0  0  0  0  0  0
    0.0962    2.7230    9.0921 N   0  0  0  0  0  0
   -0.2242    1.7515    9.1010 H   0  0  0  0  0  0
   -0.1196    3.6157   10.1058 C   0  0  0  0  0  0
    0.2555    4.8508    9.7912 N   0  0  0  0  0  0
    1.5233    6.7614    8.3756 H   0  0  0  0  0  0
    0.7305    6.1077    6.9081 H   0  0  0  0  0  0
    2.3889    5.5845    7.3387 H   0  0  0  0  0  0
    0.6163    3.2369    6.9504 H   0  0  0  0  0  0
   -0.7090    3.3186   10.9732 H   0  0  0  0  0  0
   -1.3481   12.2381   11.0184 C   0  0  0  0  0  0
   -0.7101   10.8767   11.3883 C   0  0  0  0  0  0
   -0.6833    9.7713   10.5858 C   0  0  0  0  0  0
   -0.0611    8.7519   11.2650 N   0  0  0  0  0  0
   -0.0925    7.7472   11.0748 H   0  0  0  0  0  0
    0.3401    9.2413   12.4120 C   0  0  0  0  0  0
   -0.0615   10.5101   12.6088 N   0  0  0  0  0  0
   -2.0632   12.1398   10.1844 H   0  0  0  0  0  0
   -0.5073   12.8712   10.6882 H   0  0  0  0  0  0
   -1.8558   12.7386   11.8600 H   0  0  0  0  0  0
   -1.2446    9.6687    9.6571 H   0  0  0  0  0  0
    0.8212    8.6176   13.1654 H   0  0  0  0  0  0
  1  2  1  0  0  0
  2  3  2  0  0  0
  3  4  1  0  0  0
  4  5  1  0  0  0
  4  6  1  0  0  0
  6  7  2  0  0  0
  2  7  1  0  0  0
  1  8  1  0  0  0
  1  9  1  0  0  0
  1 10  1  0  0  0
  3 11  1  0  0  0
  6 12  1  0  0  0
 13 14  1  0  0  0
 14 15  2  0  0  0
 15 16  1  0  0  0
 16 17  1  0  0  0
 16 18  1  0  0  0
 18 19  2  0  0  0
 14 19  1  0  0  0
 13 20  1  0  0  0
 13 21  1  0  0  0
 13 22  1  0  0  0
 15 23  1  0  0  0
 18 24  1  0  0  0
M  END
$$$$
