


 24 24  0  0  1  0            999 V2000
    1.4029    5.8628    7.7475 C   0  0  0  0  0  0
    0.7928    4.7235    8.4818 C   0  0  0  0  0  0
    0.4761    3.5016    7.9984 C   0  0  0  0  0  0
    0.0962    2.7230    9.0921 N   0  0  0  0  0  0
   -0.2242    1.7515    9.1010 H   0  0  0  0  0  0
   -0.1196    3.6157   10.1058 C   0  0  0  0  0  0
    0.2555    4.8508    9.7912 N   0  0  0  0  0  0
    1.5233    6.7614    8.3756 H   0  0  0  0  0  0
    0.7305    6.1077    6.9081 H   0  0  0  0  0  0
    2.3889    5.5845    7.3387 H   0  0  0  0  0  0
    0.6163    3.2369    6.9504 H   0  0  0  0  0  0
   -0.7090    3.3186   10.9732 H   0  0  0  0  0  0
   -1.1765   10.9466   10.5059 C   0  0  0  0  0  0
   -0.5385    9.5852   10.8758 C   0  0  0  0  0  0
   -0.5117    8.4798   10.0733 C   0  0  0  0  0  0
    0.1105    7.4604   10.7526 N   0  0  0  0  0  0
    0.0791    6.4557   10.5623 H   0  0  0  0  0  0
    0.5117    7.9498   11.8996 C   0  0  0  0  0  0
    0.1100    9.2186   12.0963 N   0  0  0  0  0  0
   -1.8916   10.8483    9.6719 H   0  0  0  0  0  0
   -0.3358   11.5797   10.1757 H   0  0  0  0  0  0
   -1.6843   11.4471   11.3476 H   0  0  0  0  0  0
   -1.0731    8.3772    9.1446 H   0  0  0  0  0  0
    0.9928    7.3261   12.6529 H   0  0  0  0  0  0
  1  2  1  0  0  0
  2  3  2  0  0  0
  3  4  1  0  0  0
  4  5  1  0  0  0
  4  6  1  0  0  0
  6  7  2  0  0  0
  2  7  1  0  0  0
  1  8  1  0  0  0
  1  9  1  0  0  0
  1 10  1  0  0  0
  3 11  1  0  0  0
  6 12  1  0  0  0
 13 14  1  0  0  0
 14 15  2  0  0  0
 15 16  1  0  0  0
 16 17  1  0  0  0
 16 18  1  0  0  0
 18 19  2  0  0  0
 14 19  1  0  0  0
 13 20  1  0  0  0
 13 21  1  0  0  0
 13 22  1  0  0  0
 15 23  1  0  0  0
 18 24  1  0  0  0
M  END
$$$$
