


 24 24  0  0  1  0            999 V2000
  -12.7687    4.6123   -0.6123 C   0  0  0  0  0  0
  -11.7671    5.1865    0.2492 C   0  0  0  0  0  0
  -11.9888    5.6177    1.5451 C   0  0  0  0  0  0
  -10.7356    5.9278    1.9923 N   0  0  0  0  0  0
  -10.5287    6.3909    2.8807 H   0  0  0  0  0  0
   -9.8184    5.7389    1.0740 C   0  0  0  0  0  0
  -10.4566    5.2059   -0.0409 N   0  0  0  0  0  0
  -12.3851    3.7983   -1.2501 H   0  0  0  0  0  0
  -13.1624    5.4122   -1.2616 H   0  0  0  0  0  0
  -13.5961    4.2181    0.0014 H   0  0  0  0  0  0
  -12.8512    5.8635    2.1646 H   0  0  0  0  0  0
   -8.7417    5.8767    1.1733 H   0  0  0  0  0  0
  -11.9303    0.9168   -1.1635 C   0  0  0  0  0  0
  -13.1046    0.4181   -1.9644 C   0  0  0  0  0  0
  -13.1126    0.0540   -3.2875 C   0  0  0  0  0  0
  -14.3550   -0.4629   -3.4632 N   0  0  0  0  0  0
  -14.7035   -0.8758   -4.3319 H   0  0  0  0  0  0
  -15.0943   -0.3037   -2.3605 C   0  0  0  0  0  0
  -14.3963    0.3262   -1.4622 N   0  0  0  0  0  0
  -11.0217    0.6552   -1.7315 H   0  0  0  0  0  0
  -11.9732    0.2871   -0.2590 H   0  0  0  0  0  0
  -11.8596    1.9731   -0.8538 H   0  0  0  0  0  0
  -12.4258    0.0437   -4.1338 H   0  0  0  0  0  0
  -16.1743   -0.4503   -2.3490 H   0  0  0  0  0  0
  1  2  1  0  0  0
  2  3  2  0  0  0
  3  4  1  0  0  0
  4  5  1  0  0  0
  4  6  1  0  0  0
  6  7  2  0  0  0
  2  7  1  0  0  0
  1  8  1  0  0  0
  1  9  1  0  0  0
  1 10  1  0  0  0
  3 11  1  0  0  0
  6 12  1  0  0  0
 13 14  1  0  0  0
 14 15  2  0  0  0
 15 16  1  0  0  0
 16 17  1  0  0  0
 16 18  1  0  0  0
 18 19  2  0  0  0
 14 19  1  0  0  0
 13 20  1  0  0  0
 13 21  1  0  0  0
 13 22  1  0  0  0
 15 23  1  0  0  0
 18 24  1  0  0  0
M  END
$$$$
