


 18 16  0  0  1  0            999 V2000
    3.0725    1.5880    2.2651 C   0  0  0  0  0  0
    3.7004    0.9739    1.0236 C   0  0  0  0  0  0
    2.8600   -0.1270    0.5363 N   0  0  0  0  0  0
    2.0540    1.9438    2.0358 H   0  0  0  0  0  0
    3.6714    2.4423    2.6230 H   0  0  0  0  0  0
    3.0101    0.8392    3.0727 H   0  0  0  0  0  0
    3.7472    1.7333    0.2195 H   0  0  0  0  0  0
    4.7376    0.6633    1.2539 H   0  0  0  0  0  0
    3.2764   -0.5501   -0.3005 H   0  0  0  0  0  0
    2.8234   -0.8702    1.2427 H   0  0  0  0  0  0
   -2.1037   -0.4063    1.5563 O   0  0  0  0  0  0
   -2.4021   -0.9465    3.0249 P   0  0  0  0  0  0
   -1.3980   -1.8533    3.6017 O   0  0  0  0  0  0
   -2.6734    0.4055    3.8223 O   0  0  0  0  0  0
   -3.8742   -1.5343    2.8656 O   0  0  0  0  0  0
   -1.1239   -0.2966    1.4221 H   0  0  0  0  0  0
   -2.5712    0.2552    4.8006 H   0  0  0  0  0  0
   -3.8363   -2.5083    2.6660 H   0  0  0  0  0  0
  1  2  1  0  0  0
  2  3  1  0  0  0
  1  4  1  0  0  0
  1  5  1  0  0  0
  1  6  1  0  0  0
  2  7  1  0  0  0
  2  8  1  0  0  0
  3  9  1  0  0  0
  3 10  1  0  0  0
 11 12  1  0  0  0
 12 13  2  0  0  0
 12 14  1  0  0  0
 12 15  1  0  0  0
 11 16  1  0  0  0
 14 17  1  0  0  0
 15 18  1  0  0  0
M  END
$$$$
