


 15 14  0  0  1  0            999 V2000
    0.0000    0.0000    0.0000 F   0  0  0  0  0  0
   -0.5275    0.5502    1.0776 C   0  0  0  0  0  0
   -0.7003   -0.2852    2.2028 C   0  0  0  0  0  0
   -1.2594    0.1883    3.3944 C   0  0  0  0  0  0
   -1.5419    1.5904    3.4989 C   0  0  0  0  0  0
   -1.3749    2.4127    2.3122 C   0  0  0  0  0  0
   -0.9142    1.8417    1.1077 C   0  0  0  0  0  0
   -0.4468   -1.3493    2.1081 H   0  0  0  0  0  0
   -1.3928   -0.4130    4.3034 H   0  0  0  0  0  0
   -1.7155    2.0326    4.4888 H   0  0  0  0  0  0
   -1.5728    3.4872    2.4215 H   0  0  0  0  0  0
   -0.8197    2.5494    0.2736 H   0  0  0  0  0  0
   -4.0238    4.4716    9.4864 O   0  0  0  0  0  0
   -3.5570    4.7119    8.6541 H   0  0  0  0  0  0
   -4.6133    3.7255    9.2335 H   0  0  0  0  0  0
  1  2  1  0  0  0
  2  3  1  0  0  0
  3  4  2  0  0  0
  4  5  1  0  0  0
  5  6  2  0  0  0
  6  7  1  0  0  0
  2  7  2  0  0  0
  3  8  1  0  0  0
  4  9  1  0  0  0
  5 10  1  0  0  0
  6 11  1  0  0  0
  7 12  1  0  0  0
 13 14  1  0  0  0
 13 15  1  0  0  0
M  END
$$$$
