


 18 16  0  0  1  0            999 V2000
    0.2638   -0.3162    4.5322 C   0  0  0  0  0  0
    0.4065    0.3862    3.1998 C   0  0  0  0  0  0
    0.5928   -0.2053    2.1455 O   0  0  0  0  0  0
    0.3110    1.7483    3.2589 N   0  0  0  0  0  0
    0.3550   -1.4047    4.3793 H   0  0  0  0  0  0
   -0.7197   -0.1057    4.9849 H   0  0  0  0  0  0
    1.0507    0.0076    5.2341 H   0  0  0  0  0  0
    0.1552    2.2402    4.1423 H   0  0  0  0  0  0
    0.3998    2.2771    2.3877 H   0  0  0  0  0  0
   -0.3603    3.7362   -2.6565 C   0  0  0  0  0  0
    0.8657    4.9476   -2.1358 S   0  0  0  0  0  0
    2.3293    3.9086   -2.2777 C   0  0  0  0  0  0
   -1.3514    4.2192   -2.6282 H   0  0  0  0  0  0
   -0.3753    2.8625   -1.9833 H   0  0  0  0  0  0
   -0.1692    3.3850   -3.6845 H   0  0  0  0  0  0
    2.2679    3.0319   -1.6111 H   0  0  0  0  0  0
    2.4740    3.5544   -3.3122 H   0  0  0  0  0  0
    3.2059    4.5113   -1.9863 H   0  0  0  0  0  0
  1  2  1  0  0  0
  2  3  2  0  0  0
  2  4  1  0  0  0
  1  5  1  0  0  0
  1  6  1  0  0  0
  1  7  1  0  0  0
  4  8  1  0  0  0
  4  9  1  0  0  0
 10 11  1  0  0  0
 11 12  1  0  0  0
 10 13  1  0  0  0
 10 14  1  0  0  0
 10 15  1  0  0  0
 12 16  1  0  0  0
 12 17  1  0  0  0
 12 18  1  0  0  0
M  END
$$$$
