


 22 20  0  0  1  0            999 V2000
    4.0032    3.7446    2.2285 C   0  0  0  0  0  0
    2.4995    3.5170    2.2919 C   0  0  0  0  0  0
    2.0342    1.9432    3.0776 S   0  0  0  0  0  0
    4.4402    3.7106    3.2407 H   0  0  0  0  0  0
    4.2205    4.7307    1.7845 H   0  0  0  0  0  0
    4.4842    2.9672    1.6113 H   0  0  0  0  0  0
    2.0133    4.2873    2.9210 H   0  0  0  0  0  0
    2.0429    3.5676    1.2848 H   0  0  0  0  0  0
    2.6577    1.1427    2.1871 H   0  0  0  0  0  0
    2.1309   -1.3521    1.1712 C   0  0  0  0  0  0
    2.8640   -0.2619    0.5331 N   0  0  0  0  0  0
    2.0436    0.4467   -0.4456 C   0  0  0  0  0  0
    2.8583    1.5184   -1.1535 C   0  0  0  0  0  0
    1.3202   -0.9181    1.7804 H   0  0  0  0  0  0
    2.8118   -1.9088    1.8368 H   0  0  0  0  0  0
    1.6886   -2.0591    0.4493 H   0  0  0  0  0  0
    3.6842   -0.6494    0.0496 H   0  0  0  0  0  0
    1.6050   -0.2432   -1.1920 H   0  0  0  0  0  0
    1.2091    0.9175    0.1089 H   0  0  0  0  0  0
    3.7009    1.0622   -1.6999 H   0  0  0  0  0  0
    3.2623    2.2340   -0.4177 H   0  0  0  0  0  0
    2.2302    2.0704   -1.8728 H   0  0  0  0  0  0
  1  2  1  0  0  0
  2  3  1  0  0  0
  1  4  1  0  0  0
  1  5  1  0  0  0
  1  6  1  0  0  0
  2  7  1  0  0  0
  2  8  1  0  0  0
  3  9  1  0  0  0
 10 11  1  0  0  0
 11 12  1  0  0  0
 12 13  1  0  0  0
 10 14  1  0  0  0
 10 15  1  0  0  0
 10 16  1  0  0  0
 11 17  1  0  0  0
 12 18  1  0  0  0
 12 19  1  0  0  0
 13 20  1  0  0  0
 13 21  1  0  0  0
 13 22  1  0  0  0
M  END
$$$$
