


 26 26  0  0  1  0            999 V2000
    2.8029   -5.5802   12.1886 C   0  0  0  0  0  0
    2.6277   -7.0013   12.7689 C   0  0  0  0  0  0
    2.1566   -6.9760   14.2805 C   0  0  0  0  0  0
    1.2502   -5.7491   14.3506 C   0  0  0  0  0  0
    1.8904   -4.4625   13.2836 S   0  0  0  0  0  0
    2.5062   -5.5586   11.1223 H   0  0  0  0  0  0
    3.8509   -5.2296   12.2535 H   0  0  0  0  0  0
    1.8789   -7.5246   12.1437 H   0  0  0  0  0  0
    3.5920   -7.5329   12.6549 H   0  0  0  0  0  0
    3.0218   -6.7335   14.9271 H   0  0  0  0  0  0
    1.6605   -7.8706   14.7036 H   0  0  0  0  0  0
    1.0283   -5.3541   15.3606 H   0  0  0  0  0  0
    0.3107   -6.1638   13.9374 H   0  0  0  0  0  0
    3.9772   -4.7658   10.0582 C   0  0  0  0  0  0
    4.7341   -4.6912    8.7868 C   0  0  0  0  0  0
    5.9906   -3.8951    9.0828 C   0  0  0  0  0  0
    5.6529   -2.7137    9.9522 C   0  0  0  0  0  0
    4.1114   -3.1059   10.8417 S   0  0  0  0  0  0
    4.4077   -5.4752   10.7909 H   0  0  0  0  0  0
    2.9435   -5.0950    9.8383 H   0  0  0  0  0  0
    4.9036   -5.7175    8.4080 H   0  0  0  0  0  0
    4.0661   -4.1744    8.0711 H   0  0  0  0  0  0
    6.4669   -3.6570    8.1123 H   0  0  0  0  0  0
    6.6983   -4.5202    9.6606 H   0  0  0  0  0  0
    5.4184   -1.7569    9.4473 H   0  0  0  0  0  0
    6.4951   -2.5303   10.6468 H   0  0  0  0  0  0
  1  2  1  0  0  0
  2  3  1  0  0  0
  3  4  1  0  0  0
  4  5  1  0  0  0
  1  5  1  0  0  0
  1  6  1  0  0  0
  1  7  1  0  0  0
  2  8  1  0  0  0
  2  9  1  0  0  0
  3 10  1  0  0  0
  3 11  1  0  0  0
  4 12  1  0  0  0
  4 13  1  0  0  0
 14 15  1  0  0  0
 15 16  1  0  0  0
 16 17  1  0  0  0
 17 18  1  0  0  0
 14 18  1  0  0  0
 14 19  1  0  0  0
 14 20  1  0  0  0
 15 21  1  0  0  0
 15 22  1  0  0  0
 16 23  1  0  0  0
 16 24  1  0  0  0
 17 25  1  0  0  0
 17 26  1  0  0  0
M  END
$$$$
