


 26 26  0  0  1  0            999 V2000
    0.2694    1.4298   -4.0470 C   0  0  0  0  0  0
   -1.1123    1.1488   -3.3740 C   0  0  0  0  0  0
   -2.1800    1.2118   -4.5490 C   0  0  0  0  0  0
   -1.6354    2.2538   -5.5043 C   0  0  0  0  0  0
    0.1185    2.2059   -5.7242 S   0  0  0  0  0  0
    0.8253    0.4802   -4.1682 H   0  0  0  0  0  0
    0.9112    2.1245   -3.4717 H   0  0  0  0  0  0
   -1.0459    0.1384   -2.9266 H   0  0  0  0  0  0
   -1.2140    1.8772   -2.5466 H   0  0  0  0  0  0
   -3.2003    1.4802   -4.2138 H   0  0  0  0  0  0
   -2.2669    0.3432   -5.2297 H   0  0  0  0  0  0
   -1.7658    3.2366   -5.0118 H   0  0  0  0  0  0
   -2.2658    2.2470   -6.4142 H   0  0  0  0  0  0
   -5.0265   -0.9223   -1.4181 C   0  0  0  0  0  0
   -4.9081    0.1718   -2.5207 C   0  0  0  0  0  0
   -4.4789    1.4562   -1.8709 C   0  0  0  0  0  0
   -5.0894    1.6217   -0.5697 C   0  0  0  0  0  0
   -5.2824   -0.0221    0.1431 S   0  0  0  0  0  0
   -4.1417   -1.5667   -1.2529 H   0  0  0  0  0  0
   -5.9191   -1.5766   -1.4449 H   0  0  0  0  0  0
   -4.1679   -0.0661   -3.3087 H   0  0  0  0  0  0
   -5.8678    0.4063   -3.0203 H   0  0  0  0  0  0
   -4.7268    2.4180   -2.3597 H   0  0  0  0  0  0
   -3.3770    1.3983   -1.7813 H   0  0  0  0  0  0
   -6.0897    2.0698   -0.7251 H   0  0  0  0  0  0
   -4.5086    2.3100    0.0740 H   0  0  0  0  0  0
  1  2  1  0  0  0
  2  3  1  0  0  0
  3  4  1  0  0  0
  4  5  1  0  0  0
  1  5  1  0  0  0
  1  6  1  0  0  0
  1  7  1  0  0  0
  2  8  1  0  0  0
  2  9  1  0  0  0
  3 10  1  0  0  0
  3 11  1  0  0  0
  4 12  1  0  0  0
  4 13  1  0  0  0
 14 15  1  0  0  0
 15 16  1  0  0  0
 16 17  1  0  0  0
 17 18  1  0  0  0
 14 18  1  0  0  0
 14 19  1  0  0  0
 14 20  1  0  0  0
 15 21  1  0  0  0
 15 22  1  0  0  0
 16 23  1  0  0  0
 16 24  1  0  0  0
 17 25  1  0  0  0
 17 26  1  0  0  0
M  END
$$$$
