


 22 20  0  0  1  0            999 V2000
    4.2217    2.5707    0.5031 C   0  0  0  0  0  0
    2.9891    3.1015    0.0550 O   0  0  0  0  0  0
    1.6341    2.2799    0.5442 P   0  0  0  0  0  0
    1.9083    0.8153    0.4941 O   0  0  0  0  0  0
    1.6425    2.6767    2.1544 O   0  0  0  0  0  0
    1.3206    4.0213    2.4550 C   0  0  0  0  0  0
    0.4904    2.9676   -0.1206 O   0  0  0  0  0  0
    4.3865    1.5507    0.1170 H   0  0  0  0  0  0
    5.0273    3.2236    0.1271 H   0  0  0  0  0  0
    4.2765    2.5431    1.6044 H   0  0  0  0  0  0
    1.3878    4.1483    3.5487 H   0  0  0  0  0  0
    2.0220    4.7246    1.9755 H   0  0  0  0  0  0
    0.2958    4.2728    2.1340 H   0  0  0  0  0  0
    0.6595   -0.0919    3.0209 C   0  0  0  0  0  0
    2.1445   -0.8709    3.6763 S   0  0  0  0  0  0
    3.3532    0.2965    3.0297 C   0  0  0  0  0  0
   -0.2091   -0.6963    3.3319 H   0  0  0  0  0  0
    0.6803   -0.0468    1.9190 H   0  0  0  0  0  0
    0.5343    0.9316    3.4126 H   0  0  0  0  0  0
    3.3276    0.3349    1.9277 H   0  0  0  0  0  0
    3.1816    1.3132    3.4213 H   0  0  0  0  0  0
    4.3552   -0.0383    3.3469 H   0  0  0  0  0  0
  1  2  1  0  0  0
  2  3  1  0  0  0
  3  4  1  0  0  0
  3  5  1  0  0  0
  5  6  1  0  0  0
  3  7  2  0  0  0
  1  8  1  0  0  0
  1  9  1  0  0  0
  1 10  1  0  0  0
  6 11  1  0  0  0
  6 12  1  0  0  0
  6 13  1  0  0  0
 14 15  1  0  0  0
 15 16  1  0  0  0
 14 17  1  0  0  0
 14 18  1  0  0  0
 14 19  1  0  0  0
 16 20  1  0  0  0
 16 21  1  0  0  0
 16 22  1  0  0  0
M  CHG  1   4  -1
M  END
$$$$
