


 10  8  0  0  1  0            999 V2000
    0.0000    0.0000    0.0000 C   0  0  0  0  0  0
   -1.3315    0.2609    1.1600 S   0  0  0  0  0  0
   -1.4152   -1.5540    2.1378 S   0  0  0  0  0  0
    0.1135    0.9140   -0.6069 H   0  0  0  0  0  0
   -0.1351   -0.8586   -0.6791 H   0  0  0  0  0  0
    0.9247   -0.1534    0.5814 H   0  0  0  0  0  0
   -0.3940   -1.4121    3.0093 H   0  0  0  0  0  0
   -2.0776    5.6629   -2.1476 O   0  0  0  0  0  0
   -2.2609    4.9894   -2.8412 H   0  0  0  0  0  0
   -1.1318    5.5262   -1.9129 H   0  0  0  0  0  0
  1  2  1  0  0  0
  2  3  1  0  0  0
  1  4  1  0  0  0
  1  5  1  0  0  0
  1  6  1  0  0  0
  3  7  1  0  0  0
  8  9  1  0  0  0
  8 10  1  0  0  0
M  END
$$$$
