


 21 20  0  0  1  0            999 V2000
    1.5170   -0.3536    0.6334 C   0  0  0  0  0  0
    1.2093    0.1453   -1.0690 S   0  0  0  0  0  0
    2.8013    0.9178   -1.4016 C   0  0  0  0  0  0
    0.6127   -0.8611    1.0095 H   0  0  0  0  0  0
    1.7254    0.5171    1.2776 H   0  0  0  0  0  0
    2.3670   -1.0531    0.7014 H   0  0  0  0  0  0
    2.9876    1.7666   -0.7223 H   0  0  0  0  0  0
    3.6292    0.1964   -1.2984 H   0  0  0  0  0  0
    2.7889    1.2933   -2.4386 H   0  0  0  0  0  0
    3.6955    3.7408    0.9417 Cl  0  0  0  0  0  0
    2.2050    3.0709    1.5269 C   0  0  0  0  0  0
    1.0973    3.0276    0.6830 C   0  0  0  0  0  0
   -0.0969    2.4875    1.1615 C   0  0  0  0  0  0
   -0.1803    1.9985    2.4646 C   0  0  0  0  0  0
    0.9395    2.0501    3.2958 C   0  0  0  0  0  0
    2.1400    2.5865    2.8330 C   0  0  0  0  0  0
    1.1754    3.4158   -0.3411 H   0  0  0  0  0  0
   -0.9734    2.4506    0.5012 H   0  0  0  0  0  0
   -1.1229    1.5747    2.8353 H   0  0  0  0  0  0
    0.8816    1.6670    4.3232 H   0  0  0  0  0  0
    3.0280    2.6328    3.4771 H   0  0  0  0  0  0
  1  2  1  0  0  0
  2  3  1  0  0  0
  1  4  1  0  0  0
  1  5  1  0  0  0
  1  6  1  0  0  0
  3  7  1  0  0  0
  3  8  1  0  0  0
  3  9  1  0  0  0
 10 11  1  0  0  0
 11 12  1  0  0  0
 12 13  2  0  0  0
 13 14  1  0  0  0
 14 15  2  0  0  0
 15 16  1  0  0  0
 11 16  2  0  0  0
 12 17  1  0  0  0
 13 18  1  0  0  0
 14 19  1  0  0  0
 15 20  1  0  0  0
 16 21  1  0  0  0
M  END
$$$$
