


 20 18  0  0  1  0            999 V2000
   -0.6174    1.4622   -0.9783 C   0  0  0  0  0  0
   -0.3055    1.4427    0.4517 C   0  0  0  0  0  0
   -0.0464    1.4268    1.6408 C   0  0  0  0  0  0
    0.2649    1.4081    3.0710 C   0  0  0  0  0  0
   -0.1119    2.3107   -1.4693 H   0  0  0  0  0  0
   -1.7049    1.5639   -1.1320 H   0  0  0  0  0  0
   -0.2804    0.5273   -1.4568 H   0  0  0  0  0  0
    0.9670    2.2212    3.3210 H   0  0  0  0  0  0
   -0.6546    1.5422    3.6651 H   0  0  0  0  0  0
    0.7269    0.4462    3.3501 H   0  0  0  0  0  0
   -0.1711    4.3313    1.5007 C   0  0  0  0  0  0
    1.5801    4.7420    1.3380 S   0  0  0  0  0  0
    2.4643    3.3204    2.5007 S   0  0  0  0  0  0
    2.6055    1.9284    1.3586 C   0  0  0  0  0  0
   -0.7410    5.0818    0.9274 H   0  0  0  0  0  0
   -0.4981    4.3702    2.5534 H   0  0  0  0  0  0
   -0.4018    3.3310    1.0973 H   0  0  0  0  0  0
    1.6195    1.5666    1.0218 H   0  0  0  0  0  0
    3.2046    2.1943    0.4715 H   0  0  0  0  0  0
    3.1156    1.1111    1.8956 H   0  0  0  0  0  0
  1  2  1  0  0  0
  2  3  3  0  0  0
  3  4  1  0  0  0
  1  5  1  0  0  0
  1  6  1  0  0  0
  1  7  1  0  0  0
  4  8  1  0  0  0
  4  9  1  0  0  0
  4 10  1  0  0  0
 11 12  1  0  0  0
 12 13  1  0  0  0
 13 14  1  0  0  0
 11 15  1  0  0  0
 11 16  1  0  0  0
 11 17  1  0  0  0
 14 18  1  0  0  0
 14 19  1  0  0  0
 14 20  1  0  0  0
M  END
$$$$
