


 20 18  0  0  1  0            999 V2000
   -0.6174    1.4622   -0.9783 C   0  0  0  0  0  0
   -0.3055    1.4427    0.4517 C   0  0  0  0  0  0
   -0.0464    1.4268    1.6408 C   0  0  0  0  0  0
    0.2649    1.4081    3.0710 C   0  0  0  0  0  0
   -0.1119    2.3107   -1.4693 H   0  0  0  0  0  0
   -1.7049    1.5639   -1.1320 H   0  0  0  0  0  0
   -0.2804    0.5273   -1.4568 H   0  0  0  0  0  0
    0.9670    2.2212    3.3210 H   0  0  0  0  0  0
   -0.6546    1.5422    3.6651 H   0  0  0  0  0  0
    0.7269    0.4462    3.3501 H   0  0  0  0  0  0
    2.3990    6.6635    1.9540 C   0  0  0  0  0  0
    4.1502    7.0741    1.7913 S   0  0  0  0  0  0
    5.0344    5.6526    2.9540 S   0  0  0  0  0  0
    5.1756    4.2606    1.8119 C   0  0  0  0  0  0
    1.8291    7.4140    1.3807 H   0  0  0  0  0  0
    2.0720    6.7023    3.0067 H   0  0  0  0  0  0
    2.1683    5.6631    1.5506 H   0  0  0  0  0  0
    4.1896    3.8987    1.4751 H   0  0  0  0  0  0
    5.7747    4.5264    0.9248 H   0  0  0  0  0  0
    5.6857    3.4433    2.3489 H   0  0  0  0  0  0
  1  2  1  0  0  0
  2  3  3  0  0  0
  3  4  1  0  0  0
  1  5  1  0  0  0
  1  6  1  0  0  0
  1  7  1  0  0  0
  4  8  1  0  0  0
  4  9  1  0  0  0
  4 10  1  0  0  0
 11 12  1  0  0  0
 12 13  1  0  0  0
 13 14  1  0  0  0
 11 15  1  0  0  0
 11 16  1  0  0  0
 11 17  1  0  0  0
 14 18  1  0  0  0
 14 19  1  0  0  0
 14 20  1  0  0  0
M  END
$$$$
