


 22 20  0  0  1  0            999 V2000
    1.9684   -1.0411    3.0797 C   0  0  0  0  0  0
    0.7502   -0.9293    1.7576 S   0  0  0  0  0  0
    1.7646   -0.0747    0.5252 C   0  0  0  0  0  0
    0.9511    0.1562   -0.7424 C   0  0  0  0  0  0
    2.8525   -1.6213    2.7660 H   0  0  0  0  0  0
    1.4971   -1.5532    3.9354 H   0  0  0  0  0  0
    2.3014   -0.0420    3.4074 H   0  0  0  0  0  0
    2.1102    0.8867    0.9515 H   0  0  0  0  0  0
    2.6601   -0.6893    0.3114 H   0  0  0  0  0  0
    1.5660    0.6768   -1.4958 H   0  0  0  0  0  0
    0.6149   -0.8051   -1.1660 H   0  0  0  0  0  0
    0.0638    0.7742   -0.5246 H   0  0  0  0  0  0
   -0.0687    1.8587    4.1360 C   0  0  0  0  0  0
    1.2567    2.7088    3.2515 S   0  0  0  0  0  0
    0.3922    3.0898    1.4453 S   0  0  0  0  0  0
   -0.4899    4.6333    1.7637 C   0  0  0  0  0  0
    0.3246    1.5744    5.1265 H   0  0  0  0  0  0
   -0.3841    0.9437    3.6069 H   0  0  0  0  0  0
   -0.9517    2.5038    4.2800 H   0  0  0  0  0  0
   -1.2752    4.5121    2.5287 H   0  0  0  0  0  0
    0.1985    5.4311    2.0895 H   0  0  0  0  0  0
   -0.9651    4.9432    0.8178 H   0  0  0  0  0  0
  1  2  1  0  0  0
  2  3  1  0  0  0
  3  4  1  0  0  0
  1  5  1  0  0  0
  1  6  1  0  0  0
  1  7  1  0  0  0
  3  8  1  0  0  0
  3  9  1  0  0  0
  4 10  1  0  0  0
  4 11  1  0  0  0
  4 12  1  0  0  0
 13 14  1  0  0  0
 14 15  1  0  0  0
 15 16  1  0  0  0
 13 17  1  0  0  0
 13 18  1  0  0  0
 13 19  1  0  0  0
 16 20  1  0  0  0
 16 21  1  0  0  0
 16 22  1  0  0  0
M  END
$$$$
