


 10  8  0  0  1  0            999 V2000
    0.0000    0.0000    0.0000 C   0  0  0  0  0  0
    1.0421   -0.1510    1.0901 C   0  0  0  0  0  0
    1.9155   -1.0768    0.9680 O   0  0  0  0  0  0
   -0.7778   -0.7716    0.1275 H   0  0  0  0  0  0
    0.5437   -0.2002   -0.9385 H   0  0  0  0  0  0
   -0.4910    0.9844   -0.0810 H   0  0  0  0  0  0
    0.8794    0.3632    2.0683 H   0  0  0  0  0  0
   -2.5504    2.3791    0.8836 O   0  0  0  0  0  0
   -3.1316    2.2510    1.6672 H   0  0  0  0  0  0
   -1.6804    2.6423    1.2605 H   0  0  0  0  0  0
  1  2  1  0  0  0
  2  3  2  0  0  0
  1  4  1  0  0  0
  1  5  1  0  0  0
  1  6  1  0  0  0
  2  7  1  0  0  0
  8  9  1  0  0  0
  8 10  1  0  0  0
M  END
$$$$
