


 22 22  0  0  1  0            999 V2000
   -0.0540   -2.3560    2.6002 Cl  0  0  0  0  0  0
    0.4592   -0.7499    2.9999 C   0  0  0  0  0  0
   -0.4374    0.3099    2.8723 C   0  0  0  0  0  0
   -0.0247    1.6015    3.1937 C   0  0  0  0  0  0
    1.2789    1.8160    3.6385 C   0  0  0  0  0  0
    2.1754    0.7562    3.7661 C   0  0  0  0  0  0
    1.7628   -0.5354    3.4447 C   0  0  0  0  0  0
    1.7920    3.4221    4.0382 Cl  0  0  0  0  0  0
   -1.4604    0.1222    2.5204 H   0  0  0  0  0  0
   -0.7172    2.4483    3.0993 H   0  0  0  0  0  0
    3.1984    0.9439    4.1180 H   0  0  0  0  0  0
    2.4553   -1.3822    3.5392 H   0  0  0  0  0  0
    1.5322   -0.3118   -0.8108 C   0  0  0  0  0  0
    1.9749    0.7719   -0.1660 N   0  0  0  0  0  0
    2.0090    0.8599    0.8657 H   0  0  0  0  0  0
    2.3704    1.7330   -1.0633 C   0  0  0  0  0  0
    2.1576    1.2077   -2.3101 C   0  0  0  0  0  0
    1.6419   -0.0501   -2.1168 N   0  0  0  0  0  0
    1.3719   -0.7126   -2.8663 H   0  0  0  0  0  0
    1.1553   -1.2297   -0.3597 H   0  0  0  0  0  0
    2.7659    2.7000   -0.7524 H   0  0  0  0  0  0
    2.3308    1.6259   -3.3017 H   0  0  0  0  0  0
  1  2  1  0  0  0
  2  3  2  0  0  0
  3  4  1  0  0  0
  4  5  2  0  0  0
  5  6  1  0  0  0
  6  7  2  0  0  0
  2  7  1  0  0  0
  5  8  1  0  0  0
  3  9  1  0  0  0
  4 10  1  0  0  0
  6 11  1  0  0  0
  7 12  1  0  0  0
 13 14  1  0  0  0
 14 15  1  0  0  0
 14 16  1  0  0  0
 16 17  2  0  0  0
 17 18  1  0  0  0
 18 19  1  0  0  0
 13 18  2  0  0  0
 13 20  1  0  0  0
 16 21  1  0  0  0
 17 22  1  0  0  0
M  CHG  1  18   1
M  END
$$$$
