


 18 16  0  0  1  0            999 V2000
    1.0093    0.7994    3.6853 C   0  0  0  0  0  0
    2.2320    1.5736    3.2500 C   0  0  0  0  0  0
    3.1700    1.0344    2.6858 O   0  0  0  0  0  0
    2.2264    3.0541    3.5536 C   0  0  0  0  0  0
    1.1104   -0.2647    3.4132 H   0  0  0  0  0  0
    0.1065    1.2032    3.1968 H   0  0  0  0  0  0
    0.8803    0.8723    4.7783 H   0  0  0  0  0  0
    1.3764    3.5440    3.0494 H   0  0  0  0  0  0
    2.1352    3.2218    4.6399 H   0  0  0  0  0  0
    3.1612    3.5226    3.2025 H   0  0  0  0  0  0
    3.3808    2.0366   -1.6310 C   0  0  0  0  0  0
    2.9148    2.5740   -0.3001 C   0  0  0  0  0  0
    3.4172    4.4284   -0.0961 Br  0  0  0  0  0  0
    1.0033    2.3671   -0.1091 Br  0  0  0  0  0  0
    4.4763    2.1336   -1.7154 H   0  0  0  0  0  0
    2.9135    2.5891   -2.4635 H   0  0  0  0  0  0
    3.1140    0.9703   -1.7227 H   0  0  0  0  0  0
    3.3631    2.0435    0.5644 H   0  0  0  0  0  0
  1  2  1  0  0  0
  2  3  2  0  0  0
  2  4  1  0  0  0
  1  5  1  0  0  0
  1  6  1  0  0  0
  1  7  1  0  0  0
  4  8  1  0  0  0
  4  9  1  0  0  0
  4 10  1  0  0  0
 11 12  1  0  0  0
 12 13  1  0  0  0
 12 14  1  0  0  0
 11 15  1  0  0  0
 11 16  1  0  0  0
 11 17  1  0  0  0
 12 18  1  0  0  0
M  END
$$$$
