


 24 23  0  0  1  0            999 V2000
    1.0483    4.4525   -0.4664 C   0  0  0  0  0  0
    1.0739    2.9247   -0.5059 C   0  0  0  0  0  0
    2.5105    2.4073   -0.4380 C   0  0  0  0  0  0
    0.2362    2.3417    0.6320 C   0  0  0  0  0  0
    1.4850    4.8046    0.4833 H   0  0  0  0  0  0
    0.0135    4.8274   -0.5382 H   0  0  0  0  0  0
    1.6340    4.8741   -1.3006 H   0  0  0  0  0  0
    0.6309    2.5947   -1.4675 H   0  0  0  0  0  0
    2.9725    2.7240    0.5122 H   0  0  0  0  0  0
    2.5313    1.3057   -0.4893 H   0  0  0  0  0  0
    3.1099    2.8096   -1.2719 H   0  0  0  0  0  0
   -0.8063    2.6967    0.5706 H   0  0  0  0  0  0
    0.2356    1.2394    0.5908 H   0  0  0  0  0  0
    0.6588    2.6572    1.6008 H   0  0  0  0  0  0
    1.6417   -0.4954    4.0019 C   0  0  0  0  0  0
    2.6484   -0.1932    3.1763 N   0  0  0  0  0  0
    2.5556    0.4243    2.3496 H   0  0  0  0  0  0
    3.8030   -0.8148    3.5836 C   0  0  0  0  0  0
    3.4814   -1.5270    4.7085 C   0  0  0  0  0  0
    2.1453   -1.3075    4.9363 N   0  0  0  0  0  0
    1.5932   -1.7073    5.7166 H   0  0  0  0  0  0
    0.6114   -0.1475    3.9276 H   0  0  0  0  0  0
    4.7483   -0.7053    3.0521 H   0  0  0  0  0  0
    4.0909   -2.1614    5.3520 H   0  0  0  0  0  0
  1  2  1  0  0  0
  2  3  1  0  0  0
  2  4  1  0  0  0
  1  5  1  0  0  0
  1  6  1  0  0  0
  1  7  1  0  0  0
  2  8  1  0  0  0
  3  9  1  0  0  0
  3 10  1  0  0  0
  3 11  1  0  0  0
  4 12  1  0  0  0
  4 13  1  0  0  0
  4 14  1  0  0  0
 15 16  1  0  0  0
 16 17  1  0  0  0
 16 18  1  0  0  0
 18 19  2  0  0  0
 19 20  1  0  0  0
 20 21  1  0  0  0
 15 20  2  0  0  0
 15 22  1  0  0  0
 18 23  1  0  0  0
 19 24  1  0  0  0
M  CHG  1  20   1
M  END
$$$$
