


 15 13  0  0  1  0            999 V2000
   -1.0009    0.6821    1.5578 C   0  0  0  0  0  0
   -0.3068    1.5128    2.6092 C   0  0  0  0  0  0
   -0.8382    3.3659    2.4791 Br  0  0  0  0  0  0
   -0.6750    0.8270    4.3775 Br  0  0  0  0  0  0
   -0.7592    1.0657    0.5523 H   0  0  0  0  0  0
   -2.0953    0.7122    1.6922 H   0  0  0  0  0  0
   -0.6671   -0.3671    1.6237 H   0  0  0  0  0  0
    0.7976    1.5083    2.5082 H   0  0  0  0  0  0
    5.1080    0.9017    1.8619 O   0  0  0  0  0  0
    5.1701   -0.3145    1.5323 C   0  0  0  0  0  0
    4.2292   -1.1406    1.3784 O   0  0  0  0  0  0
    6.5958   -0.8591    1.2417 C   0  0  0  0  0  0
    6.8212   -0.7032    0.1733 H   0  0  0  0  0  0
    7.3547   -0.3300    1.8422 H   0  0  0  0  0  0
    6.6628   -1.9380    1.4615 H   0  0  0  0  0  0
  1  2  1  0  0  0
  2  3  1  0  0  0
  2  4  1  0  0  0
  1  5  1  0  0  0
  1  6  1  0  0  0
  1  7  1  0  0  0
  2  8  1  0  0  0
  9 10  1  0  0  0
 10 11  2  0  0  0
 10 12  1  0  0  0
 12 13  1  0  0  0
 12 14  1  0  0  0
 12 15  1  0  0  0
M  CHG  1   9  -1
M  END
$$$$
