


 13 11  0  0  1  0            999 V2000
   -0.0544    2.4322    4.0318 C   0  0  0  0  0  0
   -0.1099    1.8727    2.6417 C   0  0  0  0  0  0
    0.2682    0.7759    2.2951 O   0  0  0  0  0  0
   -0.6535    2.7673    1.7749 O   0  0  0  0  0  0
    0.3888    1.6949    4.7222 H   0  0  0  0  0  0
   -1.0687    2.6809    4.3865 H   0  0  0  0  0  0
    0.5602    3.3478    4.0530 H   0  0  0  0  0  0
   -0.6485    2.3121    0.8890 H   0  0  0  0  0  0
    2.4902    1.9152   -1.4250 Cl  0  0  0  0  0  0
    1.3205    0.6347   -1.7443 C   0  0  0  0  0  0
   -0.2364    1.2541   -2.2942 Cl  0  0  0  0  0  0
    1.7311   -0.0462   -2.5145 H   0  0  0  0  0  0
    1.1688    0.0449   -0.8199 H   0  0  0  0  0  0
  1  2  1  0  0  0
  2  3  2  0  0  0
  2  4  1  0  0  0
  1  5  1  0  0  0
  1  6  1  0  0  0
  1  7  1  0  0  0
  4  8  1  0  0  0
  9 10  1  0  0  0
 10 11  1  0  0  0
 10 12  1  0  0  0
 10 13  1  0  0  0
M  END
$$$$
