


 26 24  0  0  1  0            999 V2000
    0.0000    0.0000    0.0000 O   0  0  0  0  0  0
    1.3398   -0.3463    0.2755 C   0  0  0  0  0  0
    2.0984    0.7441    1.0269 C   0  0  0  0  0  0
    3.4963    0.1849    1.1982 C   0  0  0  0  0  0
    4.2924    1.1399    1.8306 O   0  0  0  0  0  0
   -0.4130   -0.5834   -0.6704 H   0  0  0  0  0  0
    1.3845   -1.3217    0.7972 H   0  0  0  0  0  0
    1.9287   -0.4363   -0.6575 H   0  0  0  0  0  0
    2.0276    1.6789    0.4383 H   0  0  0  0  0  0
    1.5582    0.9045    1.9797 H   0  0  0  0  0  0
    3.4813   -0.6525    1.9220 H   0  0  0  0  0  0
    3.9596   -0.1861    0.2638 H   0  0  0  0  0  0
    3.8444    1.4030    2.6616 H   0  0  0  0  0  0
   -3.1230    6.5230   -1.0988 O   0  0  0  0  0  0
   -2.6676    5.2606   -1.5585 C   0  0  0  0  0  0
   -2.0392    4.6199   -0.3576 C   0  0  0  0  0  0
   -1.7549    3.1106   -0.5960 C   0  0  0  0  0  0
   -1.2081    2.5512    0.5303 O   0  0  0  0  0  0
   -3.5513    6.9489   -1.8705 H   0  0  0  0  0  0
   -3.5056    4.6640   -1.9676 H   0  0  0  0  0  0
   -1.8724    5.2957   -2.3278 H   0  0  0  0  0  0
   -1.1229    5.1302   -0.0033 H   0  0  0  0  0  0
   -2.7745    4.6358    0.4698 H   0  0  0  0  0  0
   -2.7003    2.5440   -0.6991 H   0  0  0  0  0  0
   -1.1187    2.8653   -1.4680 H   0  0  0  0  0  0
   -0.5943    1.8190    0.3121 H   0  0  0  0  0  0
  1  2  1  0  0  0
  2  3  1  0  0  0
  3  4  1  0  0  0
  4  5  1  0  0  0
  1  6  1  0  0  0
  2  7  1  0  0  0
  2  8  1  0  0  0
  3  9  1  0  0  0
  3 10  1  0  0  0
  4 11  1  0  0  0
  4 12  1  0  0  0
  5 13  1  0  0  0
 14 15  1  0  0  0
 15 16  1  0  0  0
 16 17  1  0  0  0
 17 18  1  0  0  0
 14 19  1  0  0  0
 15 20  1  0  0  0
 15 21  1  0  0  0
 16 22  1  0  0  0
 16 23  1  0  0  0
 17 24  1  0  0  0
 17 25  1  0  0  0
 18 26  1  0  0  0
M  END
$$$$
