


 26 24  0  0  1  0            999 V2000
    0.3211    1.1558   -2.5958 O   0  0  0  0  0  0
    1.4372    1.7944   -3.2022 C   0  0  0  0  0  0
    2.5874    2.1688   -2.1659 C   0  0  0  0  0  0
    3.8202    2.7078   -2.8114 C   0  0  0  0  0  0
    4.6692    3.2874   -1.8537 O   0  0  0  0  0  0
   -0.3902    1.1612   -3.2700 H   0  0  0  0  0  0
    1.8829    1.1067   -3.9464 H   0  0  0  0  0  0
    1.0223    2.6615   -3.7513 H   0  0  0  0  0  0
    2.1681    2.9739   -1.5324 H   0  0  0  0  0  0
    2.8809    1.3348   -1.4999 H   0  0  0  0  0  0
    4.3131    1.8407   -3.2917 H   0  0  0  0  0  0
    3.7159    3.5017   -3.5759 H   0  0  0  0  0  0
    5.5292    3.3033   -2.3234 H   0  0  0  0  0  0
    0.7542   -4.8153   -3.5099 O   0  0  0  0  0  0
   -0.0899   -4.1190   -2.5405 C   0  0  0  0  0  0
   -0.9686   -3.0305   -3.2100 C   0  0  0  0  0  0
   -1.7991   -2.3550   -2.1340 C   0  0  0  0  0  0
   -2.5326   -1.3258   -2.8521 O   0  0  0  0  0  0
    1.1029   -5.5846   -3.0129 H   0  0  0  0  0  0
   -0.6954   -4.8595   -1.9833 H   0  0  0  0  0  0
    0.5920   -3.6301   -1.8183 H   0  0  0  0  0  0
   -0.3311   -2.3665   -3.8250 H   0  0  0  0  0  0
   -1.6616   -3.5586   -3.8927 H   0  0  0  0  0  0
   -2.5891   -3.0392   -1.7689 H   0  0  0  0  0  0
   -1.3063   -1.9075   -1.2495 H   0  0  0  0  0  0
   -1.9564   -0.5342   -2.8949 H   0  0  0  0  0  0
  1  2  1  0  0  0
  2  3  1  0  0  0
  3  4  1  0  0  0
  4  5  1  0  0  0
  1  6  1  0  0  0
  2  7  1  0  0  0
  2  8  1  0  0  0
  3  9  1  0  0  0
  3 10  1  0  0  0
  4 11  1  0  0  0
  4 12  1  0  0  0
  5 13  1  0  0  0
 14 15  1  0  0  0
 15 16  1  0  0  0
 16 17  1  0  0  0
 17 18  1  0  0  0
 14 19  1  0  0  0
 15 20  1  0  0  0
 15 21  1  0  0  0
 16 22  1  0  0  0
 16 23  1  0  0  0
 17 24  1  0  0  0
 17 25  1  0  0  0
 18 26  1  0  0  0
M  END
$$$$
