


  6  4  0  0  1  0            999 V2000
   -2.1927   -4.8235    2.8978 S   0  0  0  0  0  0
   -1.8130   -4.1439    1.7997 H   0  0  0  0  0  0
   -2.6916   -3.7146    3.4749 H   0  0  0  0  0  0
   -1.8876    3.0992    4.6141 S   0  0  0  0  0  0
   -2.4563    2.2008    3.7888 H   0  0  0  0  0  0
   -1.4216    2.1338    5.4281 H   0  0  0  0  0  0
  1  2  1  0  0  0
  1  3  1  0  0  0
  4  5  1  0  0  0
  4  6  1  0  0  0
M  END
$$$$
