


  6  4  0  0  1  0            999 V2000
   -1.5848    2.9480   -2.2002 S   0  0  0  0  0  0
   -1.7469    4.2842   -2.2089 H   0  0  0  0  0  0
   -0.2475    3.0588   -2.0945 H   0  0  0  0  0  0
    1.0103    0.7120    4.0398 S   0  0  0  0  0  0
    1.2009    1.9628    4.4993 H   0  0  0  0  0  0
    2.2090    0.3056    4.4978 H   0  0  0  0  0  0
  1  2  1  0  0  0
  1  3  1  0  0  0
  4  5  1  0  0  0
  4  6  1  0  0  0
M  END
$$$$
