


  6  4  0  0  1  0            999 V2000
    1.6383    6.8735   -0.8121 S   0  0  0  0  0  0
    1.5599    6.5849    0.5003 H   0  0  0  0  0  0
    1.9425    5.6006   -1.1268 H   0  0  0  0  0  0
    2.3233    3.7638   -0.6807 S   0  0  0  0  0  0
    1.8624    2.9429    0.2814 H   0  0  0  0  0  0
    3.5997    3.5885   -0.2910 H   0  0  0  0  0  0
  1  2  1  0  0  0
  1  3  1  0  0  0
  4  5  1  0  0  0
  4  6  1  0  0  0
M  END
$$$$
