


  6  4  0  0  1  0            999 V2000
   -1.3179   -4.0263   -0.8714 S   0  0  0  0  0  0
   -1.8266   -4.5118    0.2763 H   0  0  0  0  0  0
   -0.6578   -3.0473   -0.2252 H   0  0  0  0  0  0
   -1.0864   -2.5685    2.9523 S   0  0  0  0  0  0
   -1.6482   -2.5464    4.1752 H   0  0  0  0  0  0
    0.1570   -2.5932    3.4670 H   0  0  0  0  0  0
  1  2  1  0  0  0
  1  3  1  0  0  0
  4  5  1  0  0  0
  4  6  1  0  0  0
M  END
$$$$
