


  6  4  0  0  1  0            999 V2000
   -3.5707    3.8771   -8.1861 S   0  0  0  0  0  0
   -3.4032    5.2100   -8.2703 H   0  0  0  0  0  0
   -2.2523    3.6703   -8.0108 H   0  0  0  0  0  0
   -2.9681    6.2669   -9.9881 S   0  0  0  0  0  0
   -2.5493    5.0101   -9.7501 H   0  0  0  0  0  0
   -2.1782    6.7687   -9.0206 H   0  0  0  0  0  0
  1  2  1  0  0  0
  1  3  1  0  0  0
  4  5  1  0  0  0
  4  6  1  0  0  0
M  END
$$$$
