


  6  4  0  0  1  0            999 V2000
    0.2617    0.1678  -13.5772 S   0  0  0  0  0  0
    1.5131   -0.0882  -14.0016 H   0  0  0  0  0  0
    0.4420   -0.5466  -12.4509 H   0  0  0  0  0  0
   -4.3199    1.1741  -12.9615 S   0  0  0  0  0  0
   -2.9816    1.1842  -13.1048 H   0  0  0  0  0  0
   -4.3255   -0.1281  -12.6208 H   0  0  0  0  0  0
  1  2  1  0  0  0
  1  3  1  0  0  0
  4  5  1  0  0  0
  4  6  1  0  0  0
M  END
$$$$
