


  6  4  0  0  1  0            999 V2000
    4.2469   -3.1145   11.9827 S   0  0  0  0  0  0
    5.0093   -2.6262   10.9867 H   0  0  0  0  0  0
    3.1940   -2.3602   11.6164 H   0  0  0  0  0  0
    2.8541   -0.4396   13.4418 S   0  0  0  0  0  0
    2.8556   -1.4960   12.6077 H   0  0  0  0  0  0
    1.9293    0.2053   12.7067 H   0  0  0  0  0  0
  1  2  1  0  0  0
  1  3  1  0  0  0
  4  5  1  0  0  0
  4  6  1  0  0  0
M  END
$$$$
