


  6  4  0  0  1  0            999 V2000
    1.1699   -4.0329    1.7150 S   0  0  0  0  0  0
    2.2552   -3.2551    1.5455 H   0  0  0  0  0  0
    1.8774   -5.1571    1.4970 H   0  0  0  0  0  0
    0.3169   -2.0365    5.8350 S   0  0  0  0  0  0
    1.2991   -1.7027    4.9773 H   0  0  0  0  0  0
    0.0072   -0.7467    6.0634 H   0  0  0  0  0  0
  1  2  1  0  0  0
  1  3  1  0  0  0
  4  5  1  0  0  0
  4  6  1  0  0  0
M  END
$$$$
