


  6  4  0  0  1  0            999 V2000
    3.4833   -3.3836   -0.6831 S   0  0  0  0  0  0
    2.3856   -3.8680   -1.2931 H   0  0  0  0  0  0
    3.4040   -4.2989    0.3006 H   0  0  0  0  0  0
    3.8290    3.8221   -3.6352 S   0  0  0  0  0  0
    4.4601    2.7410   -3.1407 H   0  0  0  0  0  0
    3.7718    3.2885   -4.8696 H   0  0  0  0  0  0
  1  2  1  0  0  0
  1  3  1  0  0  0
  4  5  1  0  0  0
  4  6  1  0  0  0
M  END
$$$$
