


  6  4  0  0  1  0            999 V2000
   -1.4586    4.0709   -0.9482 S   0  0  0  0  0  0
   -0.2090    4.5318   -0.7538 H   0  0  0  0  0  0
   -1.2080    2.9468   -0.2515 H   0  0  0  0  0  0
   -2.8825   -5.6192    0.0043 S   0  0  0  0  0  0
   -2.5382   -6.2703   -1.1224 H   0  0  0  0  0  0
   -1.9939   -6.3138    0.7389 H   0  0  0  0  0  0
  1  2  1  0  0  0
  1  3  1  0  0  0
  4  5  1  0  0  0
  4  6  1  0  0  0
M  END
$$$$
