


  6  4  0  0  1  0            999 V2000
    5.7742   13.1652    0.2500 S   0  0  0  0  0  0
    5.3651   14.3581    0.7204 H   0  0  0  0  0  0
    4.8714   13.1909   -0.7480 H   0  0  0  0  0  0
    3.5970    7.6841   -4.2820 S   0  0  0  0  0  0
    4.7546    8.3581   -4.4135 H   0  0  0  0  0  0
    2.9802    8.4630   -5.1901 H   0  0  0  0  0  0
  1  2  1  0  0  0
  1  3  1  0  0  0
  4  5  1  0  0  0
  4  6  1  0  0  0
M  END
$$$$
