


  6  4  0  0  1  0            999 V2000
    2.9594   10.1050   -3.5182 S   0  0  0  0  0  0
    3.2042    9.8773   -2.2143 H   0  0  0  0  0  0
    1.8277   10.7789   -3.2413 H   0  0  0  0  0  0
    2.9150    5.7091   -3.0041 S   0  0  0  0  0  0
    3.4032    6.9628   -2.9613 H   0  0  0  0  0  0
    1.7428    6.0918   -2.4643 H   0  0  0  0  0  0
  1  2  1  0  0  0
  1  3  1  0  0  0
  4  5  1  0  0  0
  4  6  1  0  0  0
M  END
$$$$
