


  6  4  0  0  1  0            999 V2000
   -1.0864   -2.5685    2.9523 S   0  0  0  0  0  0
   -1.6482   -2.5464    4.1752 H   0  0  0  0  0  0
    0.1570   -2.5932    3.4670 H   0  0  0  0  0  0
   -6.0974    2.3303    3.5511 S   0  0  0  0  0  0
   -6.3357    1.1459    2.9578 H   0  0  0  0  0  0
   -4.7873    2.2780    3.2466 H   0  0  0  0  0  0
  1  2  1  0  0  0
  1  3  1  0  0  0
  4  5  1  0  0  0
  4  6  1  0  0  0
M  END
$$$$
