


  6  4  0  0  1  0            999 V2000
   -0.5237   -0.9315    3.5805 S   0  0  0  0  0  0
   -0.1353   -2.1868    3.2892 H   0  0  0  0  0  0
    0.6911   -0.6125    4.0645 H   0  0  0  0  0  0
   -1.4133   -0.3569   -6.9127 S   0  0  0  0  0  0
   -1.0393   -1.5432   -7.4271 H   0  0  0  0  0  0
   -0.9104   -0.6645   -5.7027 H   0  0  0  0  0  0
  1  2  1  0  0  0
  1  3  1  0  0  0
  4  5  1  0  0  0
  4  6  1  0  0  0
M  END
$$$$
