


  6  4  0  0  1  0            999 V2000
    2.0029    3.1014   -0.3680 S   0  0  0  0  0  0
    0.9978    3.8688   -0.8292 H   0  0  0  0  0  0
    2.9316    3.8584   -0.9813 H   0  0  0  0  0  0
    0.9194   -1.4668    5.9669 S   0  0  0  0  0  0
   -0.1930   -1.9759    5.4057 H   0  0  0  0  0  0
    1.5943   -1.5225    4.8036 H   0  0  0  0  0  0
  1  2  1  0  0  0
  1  3  1  0  0  0
  4  5  1  0  0  0
  4  6  1  0  0  0
M  END
$$$$
