


  6  4  0  0  1  0            999 V2000
    7.5221    4.8514    7.8736 S   0  0  0  0  0  0
    8.4754    3.9666    7.5270 H   0  0  0  0  0  0
    7.2328    5.1223    6.5873 H   0  0  0  0  0  0
    4.0343    7.1069    6.7688 S   0  0  0  0  0  0
    4.5806    7.9927    7.6224 H   0  0  0  0  0  0
    5.1060    7.1509    5.9557 H   0  0  0  0  0  0
  1  2  1  0  0  0
  1  3  1  0  0  0
  4  5  1  0  0  0
  4  6  1  0  0  0
M  END
$$$$
