


  6  4  0  0  1  0            999 V2000
  -10.4432   -6.1250   -9.7345 S   0  0  0  0  0  0
  -10.6089   -7.4089  -10.1028 H   0  0  0  0  0  0
   -9.5372   -6.4570   -8.7960 H   0  0  0  0  0  0
   -3.0545   -5.2513  -10.1718 S   0  0  0  0  0  0
   -3.4732   -4.0021  -10.4471 H   0  0  0  0  0  0
   -3.9821   -5.4057   -9.2088 H   0  0  0  0  0  0
  1  2  1  0  0  0
  1  3  1  0  0  0
  4  5  1  0  0  0
  4  6  1  0  0  0
M  END
$$$$
