


  6  4  0  0  1  0            999 V2000
    4.5440   -0.9873   -3.1817 S   0  0  0  0  0  0
    5.5986   -1.2441   -2.3857 H   0  0  0  0  0  0
    3.9400   -0.2502   -2.2310 H   0  0  0  0  0  0
    1.2244    1.1715   -3.4740 S   0  0  0  0  0  0
    1.2018    0.1243   -4.3194 H   0  0  0  0  0  0
    0.9638    2.0439   -4.4653 H   0  0  0  0  0  0
  1  2  1  0  0  0
  1  3  1  0  0  0
  4  5  1  0  0  0
  4  6  1  0  0  0
M  END
$$$$
