


  6  4  0  0  1  0            999 V2000
   15.0193   -5.4087   -0.4455 S   0  0  0  0  0  0
   15.3517   -6.2715   -1.4236 H   0  0  0  0  0  0
   13.8792   -5.0594   -1.0700 H   0  0  0  0  0  0
   11.7144   -5.5582   -1.8859 S   0  0  0  0  0  0
   11.4469   -6.7627   -2.4239 H   0  0  0  0  0  0
   12.1818   -6.1111   -0.7512 H   0  0  0  0  0  0
  1  2  1  0  0  0
  1  3  1  0  0  0
  4  5  1  0  0  0
  4  6  1  0  0  0
M  END
$$$$
