


  6  4  0  0  1  0            999 V2000
   -3.5241    8.5844   -9.5994 S   0  0  0  0  0  0
   -3.4253    9.8838   -9.9363 H   0  0  0  0  0  0
   -2.3510    8.2887  -10.1894 H   0  0  0  0  0  0
    1.2977    8.1396  -11.3949 S   0  0  0  0  0  0
   -0.0122    7.9709  -11.1354 H   0  0  0  0  0  0
    1.6487    7.7156  -10.1666 H   0  0  0  0  0  0
  1  2  1  0  0  0
  1  3  1  0  0  0
  4  5  1  0  0  0
  4  6  1  0  0  0
M  END
$$$$
