


  6  4  0  0  1  0            999 V2000
   15.0193   -5.4087   -0.4455 S   0  0  0  0  0  0
   15.3517   -6.2715   -1.4236 H   0  0  0  0  0  0
   13.8792   -5.0594   -1.0700 H   0  0  0  0  0  0
   11.6204   -5.5717   -1.9175 S   0  0  0  0  0  0
   11.3529   -6.7762   -2.4554 H   0  0  0  0  0  0
   12.0879   -6.1246   -0.7828 H   0  0  0  0  0  0
  1  2  1  0  0  0
  1  3  1  0  0  0
  4  5  1  0  0  0
  4  6  1  0  0  0
M  END
$$$$
