


  6  4  0  0  1  0            999 V2000
    1.6717    7.3752    5.0534 S   0  0  0  0  0  0
    0.6442    7.8098    5.8064 H   0  0  0  0  0  0
    0.8488    6.9904    4.0601 H   0  0  0  0  0  0
    3.6196    9.0050    6.7004 S   0  0  0  0  0  0
    2.5926    8.3399    6.1393 H   0  0  0  0  0  0
    4.5168    8.3985    5.9010 H   0  0  0  0  0  0
  1  2  1  0  0  0
  1  3  1  0  0  0
  4  5  1  0  0  0
  4  6  1  0  0  0
M  END
$$$$
