


  6  4  0  0  1  0            999 V2000
    5.7742   13.1652    0.2500 S   0  0  0  0  0  0
    5.3651   14.3581    0.7204 H   0  0  0  0  0  0
    4.8714   13.1909   -0.7480 H   0  0  0  0  0  0
    4.3811    9.9957   -2.3711 S   0  0  0  0  0  0
    5.5388   10.6697   -2.5026 H   0  0  0  0  0  0
    3.7643   10.7746   -3.2792 H   0  0  0  0  0  0
  1  2  1  0  0  0
  1  3  1  0  0  0
  4  5  1  0  0  0
  4  6  1  0  0  0
M  END
$$$$
