


 29 27  0  0  1  0            999 V2000
    4.0173    1.3013   -1.4963 C   0  0  0  0  0  0
    2.7676    0.5551   -1.1222 C   0  0  0  0  0  0
    2.4687   -0.0310    0.0491 C   0  0  0  0  0  0
    1.1529   -0.7411    0.2409 C   0  0  0  0  0  0
    3.3645   -0.0530    1.2600 C   0  0  0  0  0  0
    4.7395    1.3376   -0.6634 H   0  0  0  0  0  0
    3.7584    2.3345   -1.7827 H   0  0  0  0  0  0
    4.4981    0.8075   -2.3575 H   0  0  0  0  0  0
    2.0100    0.4860   -1.9139 H   0  0  0  0  0  0
    1.3284   -1.8009    0.4910 H   0  0  0  0  0  0
    0.5881   -0.2740    1.0652 H   0  0  0  0  0  0
    0.5419   -0.6924   -0.6761 H   0  0  0  0  0  0
    3.5867   -1.0995    1.5285 H   0  0  0  0  0  0
    4.3170    0.4765    1.0901 H   0  0  0  0  0  0
    2.8427    0.4242    2.1065 H   0  0  0  0  0  0
    2.6562    4.5349    0.7841 C   0  0  0  0  0  0
    1.2903    4.1873    0.1932 C   0  0  0  0  0  0
    0.4128    3.4054    1.1681 C   0  0  0  0  0  0
   -0.9532    3.0578    0.5772 C   0  0  0  0  0  0
    3.2669    5.0983    0.0587 H   0  0  0  0  0  0
    3.1959    3.6124    1.0568 H   0  0  0  0  0  0
    2.5304    5.1500    1.6909 H   0  0  0  0  0  0
    0.7641    5.1186   -0.0919 H   0  0  0  0  0  0
    1.4283    3.5842   -0.7247 H   0  0  0  0  0  0
    0.9389    2.4741    1.4532 H   0  0  0  0  0  0
    0.2747    4.0085    2.0861 H   0  0  0  0  0  0
   -0.8273    2.4427   -0.3296 H   0  0  0  0  0  0
   -1.4929    3.9803    0.3045 H   0  0  0  0  0  0
   -1.5639    2.4943    1.3026 H   0  0  0  0  0  0
  1  2  1  0  0  0
  2  3  2  0  0  0
  3  4  1  0  0  0
  3  5  1  0  0  0
  1  6  1  0  0  0
  1  7  1  0  0  0
  1  8  1  0  0  0
  2  9  1  0  0  0
  4 10  1  0  0  0
  4 11  1  0  0  0
  4 12  1  0  0  0
  5 13  1  0  0  0
  5 14  1  0  0  0
  5 15  1  0  0  0
 16 17  1  0  0  0
 17 18  1  0  0  0
 18 19  1  0  0  0
 16 20  1  0  0  0
 16 21  1  0  0  0
 16 22  1  0  0  0
 17 23  1  0  0  0
 17 24  1  0  0  0
 18 25  1  0  0  0
 18 26  1  0  0  0
 19 27  1  0  0  0
 19 28  1  0  0  0
 19 29  1  0  0  0
M  END
$$$$
