


 26 24  0  0  1  0            999 V2000
    0.4399    4.3685    1.9889 C   0  0  0  0  0  0
   -0.5528    3.4400    2.6709 C   0  0  0  0  0  0
   -1.3724    2.7616    1.6589 N   0  0  0  0  0  0
    1.0733    3.7959    1.2906 H   0  0  0  0  0  0
    1.0903    4.8582    2.7330 H   0  0  0  0  0  0
   -0.0939    5.1487    1.4206 H   0  0  0  0  0  0
   -0.0033    2.6573    3.2284 H   0  0  0  0  0  0
   -1.1505    4.0174    3.4022 H   0  0  0  0  0  0
   -2.0478    2.1341    2.1092 H   0  0  0  0  0  0
   -1.9271    3.4548    1.1447 H   0  0  0  0  0  0
    0.8744    1.2560   -0.2491 O   0  0  0  0  0  0
    1.7251    0.5550    0.6760 C   0  0  0  0  0  0
    2.8208   -0.1618   -0.0932 C   0  0  0  0  0  0
    3.9667    0.7052   -0.6299 C   0  0  0  0  0  0
    3.6259    1.6393   -1.7880 C   0  0  0  0  0  0
    2.8820    2.7873   -1.4052 O   0  0  0  0  0  0
    0.1442    1.6671    0.2590 H   0  0  0  0  0  0
    1.1214   -0.1821    1.2397 H   0  0  0  0  0  0
    2.1628    1.2613    1.4074 H   0  0  0  0  0  0
    3.2537   -0.9051    0.6036 H   0  0  0  0  0  0
    2.3468   -0.7168   -0.9255 H   0  0  0  0  0  0
    4.3905    1.3135    0.1921 H   0  0  0  0  0  0
    4.7604    0.0203   -0.9854 H   0  0  0  0  0  0
    4.5663    2.0262   -2.2257 H   0  0  0  0  0  0
    3.0958    1.0721   -2.5772 H   0  0  0  0  0  0
    2.0194    2.4561   -1.0789 H   0  0  0  0  0  0
  1  2  1  0  0  0
  2  3  1  0  0  0
  1  4  1  0  0  0
  1  5  1  0  0  0
  1  6  1  0  0  0
  2  7  1  0  0  0
  2  8  1  0  0  0
  3  9  1  0  0  0
  3 10  1  0  0  0
 11 12  1  0  0  0
 12 13  1  0  0  0
 13 14  1  0  0  0
 14 15  1  0  0  0
 15 16  1  0  0  0
 11 17  1  0  0  0
 12 18  1  0  0  0
 12 19  1  0  0  0
 13 20  1  0  0  0
 13 21  1  0  0  0
 14 22  1  0  0  0
 14 23  1  0  0  0
 15 24  1  0  0  0
 15 25  1  0  0  0
 16 26  1  0  0  0
M  END
$$$$
