


 26 24  0  0  1  0            999 V2000
   -1.2057    5.2555    2.3956 C   0  0  0  0  0  0
    0.1855    4.9188    2.5641 O   0  0  0  0  0  0
    1.0444    6.0861    2.7094 C   0  0  0  0  0  0
    0.9872    6.7869    3.9503 O   0  0  0  0  0  0
    1.3802    6.0517    5.1006 C   0  0  0  0  0  0
   -1.7383    4.2965    2.2802 H   0  0  0  0  0  0
   -1.5428    5.9428    1.6015 H   0  0  0  0  0  0
   -1.4720    5.6903    3.3737 H   0  0  0  0  0  0
    2.0746    5.6954    2.6023 H   0  0  0  0  0  0
    0.8803    6.8278    1.9042 H   0  0  0  0  0  0
    1.7412    6.6287    5.9685 H   0  0  0  0  0  0
    2.1686    5.3426    4.7970 H   0  0  0  0  0  0
    0.4892    5.4777    5.4057 H   0  0  0  0  0  0
   -0.7719    4.2811   -1.7342 C   0  0  0  0  0  0
    0.6185    4.5027   -1.4947 O   0  0  0  0  0  0
    1.4312    4.6418   -2.5044 C   0  0  0  0  0  0
    1.4511    3.4831   -3.2142 O   0  0  0  0  0  0
    1.9196    2.3158   -2.5181 C   0  0  0  0  0  0
   -1.2401    4.0633   -0.7596 H   0  0  0  0  0  0
   -0.8481    3.3828   -2.3697 H   0  0  0  0  0  0
   -1.3292    5.1016   -2.2167 H   0  0  0  0  0  0
    1.1375    5.5217   -3.1085 H   0  0  0  0  0  0
    2.4457    4.8316   -2.1042 H   0  0  0  0  0  0
    2.9481    2.5270   -2.1802 H   0  0  0  0  0  0
    1.9274    1.3835   -3.1075 H   0  0  0  0  0  0
    1.2816    2.1658   -1.6310 H   0  0  0  0  0  0
  1  2  1  0  0  0
  2  3  1  0  0  0
  3  4  1  0  0  0
  4  5  1  0  0  0
  1  6  1  0  0  0
  1  7  1  0  0  0
  1  8  1  0  0  0
  3  9  1  0  0  0
  3 10  1  0  0  0
  5 11  1  0  0  0
  5 12  1  0  0  0
  5 13  1  0  0  0
 14 15  1  0  0  0
 15 16  1  0  0  0
 16 17  1  0  0  0
 17 18  1  0  0  0
 14 19  1  0  0  0
 14 20  1  0  0  0
 14 21  1  0  0  0
 16 22  1  0  0  0
 16 23  1  0  0  0
 18 24  1  0  0  0
 18 25  1  0  0  0
 18 26  1  0  0  0
M  END
$$$$
