


 26 24  0  0  1  0            999 V2000
    3.2881   -3.5559   -0.4678 C   0  0  0  0  0  0
    4.5251   -4.2340   -0.1239 O   0  0  0  0  0  0
    4.4608   -5.2892    0.7210 C   0  0  0  0  0  0
    3.8695   -6.3392    0.0094 O   0  0  0  0  0  0
    3.1509   -7.2441    0.8541 C   0  0  0  0  0  0
    3.4679   -2.7709   -1.2215 H   0  0  0  0  0  0
    2.8278   -3.0918    0.4206 H   0  0  0  0  0  0
    2.5806   -4.2909   -0.8873 H   0  0  0  0  0  0
    5.4215   -5.6379    1.1461 H   0  0  0  0  0  0
    3.8103   -4.9856    1.5637 H   0  0  0  0  0  0
    2.8271   -8.1180    0.2641 H   0  0  0  0  0  0
    2.2692   -6.8137    1.3582 H   0  0  0  0  0  0
    3.8649   -7.5837    1.6231 H   0  0  0  0  0  0
    2.3709    4.0815   -0.0582 C   0  0  0  0  0  0
    2.3921    5.3147    0.5889 O   0  0  0  0  0  0
    1.1294    5.8558    0.9349 C   0  0  0  0  0  0
    0.2820    6.1303   -0.0609 O   0  0  0  0  0  0
    0.5139    7.3366   -0.8364 C   0  0  0  0  0  0
    3.3521    3.7733   -0.4568 H   0  0  0  0  0  0
    1.6646    4.1800   -0.8996 H   0  0  0  0  0  0
    2.0030    3.2928    0.6194 H   0  0  0  0  0  0
    0.6403    5.0458    1.5095 H   0  0  0  0  0  0
    1.3446    6.6840    1.6373 H   0  0  0  0  0  0
    0.5886    8.1894   -0.1408 H   0  0  0  0  0  0
   -0.3133    7.5284   -1.5404 H   0  0  0  0  0  0
    1.4540    7.2662   -1.4089 H   0  0  0  0  0  0
  1  2  1  0  0  0
  2  3  1  0  0  0
  3  4  1  0  0  0
  4  5  1  0  0  0
  1  6  1  0  0  0
  1  7  1  0  0  0
  1  8  1  0  0  0
  3  9  1  0  0  0
  3 10  1  0  0  0
  5 11  1  0  0  0
  5 12  1  0  0  0
  5 13  1  0  0  0
 14 15  1  0  0  0
 15 16  1  0  0  0
 16 17  1  0  0  0
 17 18  1  0  0  0
 14 19  1  0  0  0
 14 20  1  0  0  0
 14 21  1  0  0  0
 16 22  1  0  0  0
 16 23  1  0  0  0
 18 24  1  0  0  0
 18 25  1  0  0  0
 18 26  1  0  0  0
M  END
$$$$
