


 20 18  0  0  1  0            999 V2000
    3.0540   -4.5319   -2.6276 C   0  0  0  0  0  0
    2.0573   -3.6790   -3.2907 N   0  0  0  0  0  0
    1.6094   -2.5734   -2.4030 C   0  0  0  0  0  0
    2.5211   -5.1481   -1.8840 H   0  0  0  0  0  0
    3.7712   -3.8828   -2.0977 H   0  0  0  0  0  0
    3.6159   -5.2008   -3.3011 H   0  0  0  0  0  0
    2.6621   -3.1782   -3.9542 H   0  0  0  0  0  0
    1.3260   -3.0447   -1.4469 H   0  0  0  0  0  0
    0.7210   -2.0755   -2.8267 H   0  0  0  0  0  0
    2.3795   -1.8093   -2.2039 H   0  0  0  0  0  0
    5.3529    4.7843    2.0344 C   0  0  0  0  0  0
    4.0145    4.2076    2.0096 N   0  0  0  0  0  0
    3.9819    2.9311    2.6700 C   0  0  0  0  0  0
    5.2796    5.8650    1.8261 H   0  0  0  0  0  0
    6.0942    4.3431    1.3471 H   0  0  0  0  0  0
    5.7085    4.6489    3.0697 H   0  0  0  0  0  0
    3.3730    4.9315    2.3577 H   0  0  0  0  0  0
    4.8119    2.2500    2.4173 H   0  0  0  0  0  0
    3.0315    2.4474    2.3879 H   0  0  0  0  0  0
    3.9822    3.0967    3.7605 H   0  0  0  0  0  0
  1  2  1  0  0  0
  2  3  1  0  0  0
  1  4  1  0  0  0
  1  5  1  0  0  0
  1  6  1  0  0  0
  2  7  1  0  0  0
  3  8  1  0  0  0
  3  9  1  0  0  0
  3 10  1  0  0  0
 11 12  1  0  0  0
 12 13  1  0  0  0
 11 14  1  0  0  0
 11 15  1  0  0  0
 11 16  1  0  0  0
 12 17  1  0  0  0
 13 18  1  0  0  0
 13 19  1  0  0  0
 13 20  1  0  0  0
M  END
$$$$
