


 20 18  0  0  1  0            999 V2000
   -6.7293   14.7153    3.6134 C   0  0  0  0  0  0
   -6.5839   13.8007    4.7213 N   0  0  0  0  0  0
   -5.3272   14.0935    5.3815 C   0  0  0  0  0  0
   -7.7198   14.5473    3.1581 H   0  0  0  0  0  0
   -5.9722   14.7339    2.8115 H   0  0  0  0  0  0
   -6.7347   15.6976    4.1150 H   0  0  0  0  0  0
   -7.2855   13.8942    5.4669 H   0  0  0  0  0  0
   -4.4855   13.7451    4.7595 H   0  0  0  0  0  0
   -5.2930   13.5638    6.3484 H   0  0  0  0  0  0
   -5.2035   15.1737    5.5676 H   0  0  0  0  0  0
   -8.4658   11.8698    6.6484 C   0  0  0  0  0  0
   -7.5889   11.4492    7.7389 N   0  0  0  0  0  0
   -6.5499   10.5227    7.2699 C   0  0  0  0  0  0
   -9.2375   12.5236    7.0883 H   0  0  0  0  0  0
   -8.9593   10.9792    6.2242 H   0  0  0  0  0  0
   -7.9649   12.4168    5.8321 H   0  0  0  0  0  0
   -8.1415   10.8748    8.3881 H   0  0  0  0  0  0
   -5.7551   11.1408    6.8194 H   0  0  0  0  0  0
   -6.8884    9.7855    6.5226 H   0  0  0  0  0  0
   -6.1275    9.9806    8.1327 H   0  0  0  0  0  0
  1  2  1  0  0  0
  2  3  1  0  0  0
  1  4  1  0  0  0
  1  5  1  0  0  0
  1  6  1  0  0  0
  2  7  1  0  0  0
  3  8  1  0  0  0
  3  9  1  0  0  0
  3 10  1  0  0  0
 11 12  1  0  0  0
 12 13  1  0  0  0
 11 14  1  0  0  0
 11 15  1  0  0  0
 11 16  1  0  0  0
 12 17  1  0  0  0
 13 18  1  0  0  0
 13 19  1  0  0  0
 13 20  1  0  0  0
M  END
$$$$
