


 20 18  0  0  1  0            999 V2000
   -1.0556   -2.1672   -3.1489 C   0  0  0  0  0  0
   -2.0249   -2.3999   -4.1846 N   0  0  0  0  0  0
   -2.8576   -3.4945   -3.7657 C   0  0  0  0  0  0
   -0.3602   -1.3983   -3.5255 H   0  0  0  0  0  0
   -0.4736   -3.0618   -2.8702 H   0  0  0  0  0  0
   -1.5557   -1.7775   -2.2463 H   0  0  0  0  0  0
   -1.4222   -2.6260   -4.9861 H   0  0  0  0  0  0
   -2.3729   -4.1306   -3.0061 H   0  0  0  0  0  0
   -3.0907   -4.1150   -4.6473 H   0  0  0  0  0  0
   -3.8023   -3.1066   -3.3489 H   0  0  0  0  0  0
   -2.1699   -6.4580    4.5628 C   0  0  0  0  0  0
   -2.1548   -6.9421    3.2604 N   0  0  0  0  0  0
   -1.6758   -5.9409    2.2931 C   0  0  0  0  0  0
   -2.8371   -5.5834    4.6439 H   0  0  0  0  0  0
   -1.1677   -6.1704    4.9227 H   0  0  0  0  0  0
   -2.5602   -7.2597    5.2120 H   0  0  0  0  0  0
   -1.5314   -7.7433    3.0982 H   0  0  0  0  0  0
   -2.3458   -5.0744    2.1630 H   0  0  0  0  0  0
   -1.5874   -6.4654    1.3269 H   0  0  0  0  0  0
   -0.6781   -5.5733    2.5865 H   0  0  0  0  0  0
  1  2  1  0  0  0
  2  3  1  0  0  0
  1  4  1  0  0  0
  1  5  1  0  0  0
  1  6  1  0  0  0
  2  7  1  0  0  0
  3  8  1  0  0  0
  3  9  1  0  0  0
  3 10  1  0  0  0
 11 12  1  0  0  0
 12 13  1  0  0  0
 11 14  1  0  0  0
 11 15  1  0  0  0
 11 16  1  0  0  0
 12 17  1  0  0  0
 13 18  1  0  0  0
 13 19  1  0  0  0
 13 20  1  0  0  0
M  END
$$$$
