


 20 18  0  0  1  0            999 V2000
    0.0000    0.0000    0.0000 C   0  0  0  0  0  0
    0.9287   -0.0936    1.1517 N   0  0  0  0  0  0
    0.2442   -0.0483    2.4046 C   0  0  0  0  0  0
   -0.7121   -0.8171    0.2045 H   0  0  0  0  0  0
    0.4214   -0.1449   -1.0090 H   0  0  0  0  0  0
   -0.5480    0.9571    0.0183 H   0  0  0  0  0  0
    1.4639   -0.9678    1.0727 H   0  0  0  0  0  0
   -0.5790    0.6825    2.3342 H   0  0  0  0  0  0
    0.8957    0.2359    3.2480 H   0  0  0  0  0  0
   -0.1852   -1.0430    2.6114 H   0  0  0  0  0  0
   -4.1290    2.6286    0.3701 C   0  0  0  0  0  0
   -5.0046    3.7261    0.0926 N   0  0  0  0  0  0
   -4.2000    4.8970   -0.1324 C   0  0  0  0  0  0
   -3.3947    2.7037    1.1897 H   0  0  0  0  0  0
   -3.5872    2.4374   -0.5714 H   0  0  0  0  0  0
   -4.7957    1.7735    0.5723 H   0  0  0  0  0  0
   -5.7835    3.8556    0.7509 H   0  0  0  0  0  0
   -4.8316    5.7879   -0.2872 H   0  0  0  0  0  0
   -3.5988    4.7297   -1.0419 H   0  0  0  0  0  0
   -3.5160    5.0927    0.7104 H   0  0  0  0  0  0
  1  2  1  0  0  0
  2  3  1  0  0  0
  1  4  1  0  0  0
  1  5  1  0  0  0
  1  6  1  0  0  0
  2  7  1  0  0  0
  3  8  1  0  0  0
  3  9  1  0  0  0
  3 10  1  0  0  0
 11 12  1  0  0  0
 12 13  1  0  0  0
 11 14  1  0  0  0
 11 15  1  0  0  0
 11 16  1  0  0  0
 12 17  1  0  0  0
 13 18  1  0  0  0
 13 19  1  0  0  0
 13 20  1  0  0  0
M  END
$$$$
