


 20 18  0  0  1  0            999 V2000
    5.2045   -7.2917  -13.1341 C   0  0  0  0  0  0
    5.7003   -6.0388  -12.4340 N   0  0  0  0  0  0
    5.3812   -4.8857  -13.1773 C   0  0  0  0  0  0
    4.2083   -7.1612  -13.5892 H   0  0  0  0  0  0
    5.2044   -8.2270  -12.5494 H   0  0  0  0  0  0
    5.9510   -7.3815  -13.9411 H   0  0  0  0  0  0
    5.2226   -6.0021  -11.5245 H   0  0  0  0  0  0
    4.3018   -4.7144  -13.0287 H   0  0  0  0  0  0
    5.5709   -5.0203  -14.2556 H   0  0  0  0  0  0
    5.9299   -3.9932  -12.8323 H   0  0  0  0  0  0
   10.6285   -5.4668   -7.2845 C   0  0  0  0  0  0
   10.0057   -6.6509   -7.7430 N   0  0  0  0  0  0
   10.9184   -7.8029   -7.9036 C   0  0  0  0  0  0
    9.8222   -4.7920   -6.9511 H   0  0  0  0  0  0
   11.3040   -4.9051   -7.9515 H   0  0  0  0  0  0
   11.2003   -5.7955   -6.4004 H   0  0  0  0  0  0
    9.2894   -6.4997   -8.4646 H   0  0  0  0  0  0
   11.4575   -7.7152   -8.8618 H   0  0  0  0  0  0
   10.3768   -8.7637   -7.8912 H   0  0  0  0  0  0
   11.6561   -7.8043   -7.0836 H   0  0  0  0  0  0
  1  2  1  0  0  0
  2  3  1  0  0  0
  1  4  1  0  0  0
  1  5  1  0  0  0
  1  6  1  0  0  0
  2  7  1  0  0  0
  3  8  1  0  0  0
  3  9  1  0  0  0
  3 10  1  0  0  0
 11 12  1  0  0  0
 12 13  1  0  0  0
 11 14  1  0  0  0
 11 15  1  0  0  0
 11 16  1  0  0  0
 12 17  1  0  0  0
 13 18  1  0  0  0
 13 19  1  0  0  0
 13 20  1  0  0  0
M  END
$$$$
