


 23 21  0  0  1  0            999 V2000
   -0.5980    2.0917    0.7808 C   0  0  0  0  0  0
    0.1186    1.6702    2.0428 C   0  0  0  0  0  0
    0.3475    2.4558    2.9479 O   0  0  0  0  0  0
    0.5354    0.2195    2.1195 C   0  0  0  0  0  0
   -0.8626    3.1615    0.8275 H   0  0  0  0  0  0
   -1.5234    1.5057    0.6520 H   0  0  0  0  0  0
    0.0479    1.9272   -0.0981 H   0  0  0  0  0  0
   -0.3493   -0.4360    2.0538 H   0  0  0  0  0  0
    1.2184   -0.0270    1.2892 H   0  0  0  0  0  0
    1.0528    0.0175    3.0725 H   0  0  0  0  0  0
    2.3263    3.9563    0.5667 C   0  0  0  0  0  0
    2.8730    2.6191    0.7820 N   0  0  0  0  0  0
    3.6688    2.5463    2.0045 C   0  0  0  0  0  0
    4.2941    1.1682    2.1565 C   0  0  0  0  0  0
    1.5937    4.1665    1.3640 H   0  0  0  0  0  0
    1.8063    3.9853   -0.4055 H   0  0  0  0  0  0
    3.0953    4.7470    0.5782 H   0  0  0  0  0  0
    3.4762    2.3733   -0.0133 H   0  0  0  0  0  0
    4.4599    3.3203    2.0276 H   0  0  0  0  0  0
    2.9830    2.7406    2.8515 H   0  0  0  0  0  0
    4.9707    0.9580    1.3111 H   0  0  0  0  0  0
    3.5069    0.3959    2.1775 H   0  0  0  0  0  0
    4.8725    1.1066    3.0937 H   0  0  0  0  0  0
  1  2  1  0  0  0
  2  3  2  0  0  0
  2  4  1  0  0  0
  1  5  1  0  0  0
  1  6  1  0  0  0
  1  7  1  0  0  0
  4  8  1  0  0  0
  4  9  1  0  0  0
  4 10  1  0  0  0
 11 12  1  0  0  0
 12 13  1  0  0  0
 13 14  1  0  0  0
 11 15  1  0  0  0
 11 16  1  0  0  0
 11 17  1  0  0  0
 12 18  1  0  0  0
 13 19  1  0  0  0
 13 20  1  0  0  0
 14 21  1  0  0  0
 14 22  1  0  0  0
 14 23  1  0  0  0
M  END
$$$$
