


  7  5  0  0  1  0            999 V2000
    0.0000    0.0000    0.0000 N   0  0  0  0  0  0
    0.0894   -0.2031    1.0007 H   0  0  0  0  0  0
    0.9454   -0.0268   -0.3951 H   0  0  0  0  0  0
   -0.5193   -0.7792   -0.4169 H   0  0  0  0  0  0
    2.1978   -0.1933    1.8637 O   0  0  0  0  0  0
    1.2342   -0.3164    2.0202 H   0  0  0  0  0  0
    2.6247   -0.9355    2.3486 H   0  0  0  0  0  0
  1  2  1  0  0  0
  1  3  1  0  0  0
  1  4  1  0  0  0
  5  6  1  0  0  0
  5  7  1  0  0  0
M  END
$$$$
