


  7  5  0  0  1  0            999 V2000
    0.0000    0.0000    0.0000 N   0  0  0  0  0  0
   -0.9391   -0.3679    0.1825 H   0  0  0  0  0  0
    0.5859   -0.7977   -0.2666 H   0  0  0  0  0  0
   -0.0720    0.6054   -0.8240 H   0  0  0  0  0  0
   -1.6190    0.9556   -2.7043 O   0  0  0  0  0  0
   -0.7255    1.1476   -2.3397 H   0  0  0  0  0  0
   -1.4455    0.4884   -3.5528 H   0  0  0  0  0  0
  1  2  1  0  0  0
  1  3  1  0  0  0
  1  4  1  0  0  0
  5  6  1  0  0  0
  5  7  1  0  0  0
M  END
$$$$
