


  7  5  0  0  1  0            999 V2000
    0.0000    0.0000    0.0000 N   0  0  0  0  0  0
    0.5135    0.3156   -0.8290 H   0  0  0  0  0  0
   -0.5543    0.7971    0.3285 H   0  0  0  0  0  0
   -0.6636   -0.7149   -0.3149 H   0  0  0  0  0  0
    1.7695    2.3458    0.8303 O   0  0  0  0  0  0
    1.0419    1.6910    0.7300 H   0  0  0  0  0  0
    1.3440    3.2170    0.6619 H   0  0  0  0  0  0
  1  2  1  0  0  0
  1  3  1  0  0  0
  1  4  1  0  0  0
  5  6  1  0  0  0
  5  7  1  0  0  0
M  END
$$$$
