


  7  5  0  0  1  0            999 V2000
    0.0000    0.0000    0.0000 N   0  0  0  0  0  0
   -0.5464    0.7452   -0.4436 H   0  0  0  0  0  0
    0.0992    0.2514    0.9887 H   0  0  0  0  0  0
   -0.5716   -0.8501   -0.0354 H   0  0  0  0  0  0
   -2.7516    1.2852   -2.9235 O   0  0  0  0  0  0
   -2.2863    1.6992   -2.1617 H   0  0  0  0  0  0
   -3.3056    2.0072   -3.2977 H   0  0  0  0  0  0
  1  2  1  0  0  0
  1  3  1  0  0  0
  1  4  1  0  0  0
  5  6  1  0  0  0
  5  7  1  0  0  0
M  END
$$$$
