


  7  5  0  0  1  0            999 V2000
    0.0000    0.0000    0.0000 N   0  0  0  0  0  0
    0.1242   -0.9826   -0.2641 H   0  0  0  0  0  0
    0.6177    0.1741    0.7993 H   0  0  0  0  0  0
    0.3539    0.5648   -0.7786 H   0  0  0  0  0  0
   -3.9771    1.1359   -0.4518 O   0  0  0  0  0  0
   -3.0307    0.9533   -0.2539 H   0  0  0  0  0  0
   -4.1869    0.5551   -1.2179 H   0  0  0  0  0  0
  1  2  1  0  0  0
  1  3  1  0  0  0
  1  4  1  0  0  0
  5  6  1  0  0  0
  5  7  1  0  0  0
M  END
$$$$
