


  7  5  0  0  1  0            999 V2000
    0.0000    0.0000    0.0000 N   0  0  0  0  0  0
   -0.8442    0.4963    0.3026 H   0  0  0  0  0  0
    0.2317   -0.6716    0.7388 H   0  0  0  0  0  0
   -0.2562   -0.5456   -0.8290 H   0  0  0  0  0  0
   -0.0095   -0.9936    2.6605 O   0  0  0  0  0  0
   -0.9138   -1.3011    2.4241 H   0  0  0  0  0  0
    0.5934   -1.5807    2.1505 H   0  0  0  0  0  0
  1  2  1  0  0  0
  1  3  1  0  0  0
  1  4  1  0  0  0
  5  6  1  0  0  0
  5  7  1  0  0  0
M  END
$$$$
