


  7  5  0  0  1  0            999 V2000
    0.0000    0.0000    0.0000 N   0  0  0  0  0  0
   -0.0593    0.7731   -0.6704 H   0  0  0  0  0  0
   -0.7013   -0.6927   -0.2812 H   0  0  0  0  0  0
    0.9184   -0.4365   -0.1290 H   0  0  0  0  0  0
    1.0744    2.2522    0.2689 O   0  0  0  0  0  0
    1.1372    2.5533    1.2036 H   0  0  0  0  0  0
    0.1307    2.3904    0.0267 H   0  0  0  0  0  0
  1  2  1  0  0  0
  1  3  1  0  0  0
  1  4  1  0  0  0
  5  6  1  0  0  0
  5  7  1  0  0  0
M  END
$$$$
