


  7  5  0  0  1  0            999 V2000
    0.0000    0.0000    0.0000 N   0  0  0  0  0  0
    0.7254    0.4293   -0.5832 H   0  0  0  0  0  0
   -0.6645   -0.4524   -0.6359 H   0  0  0  0  0  0
    0.4527   -0.7459    0.5378 H   0  0  0  0  0  0
   -2.4762    0.4785    5.9243 O   0  0  0  0  0  0
   -3.3610    0.8928    6.0411 H   0  0  0  0  0  0
   -2.2620    0.6147    4.9736 H   0  0  0  0  0  0
  1  2  1  0  0  0
  1  3  1  0  0  0
  1  4  1  0  0  0
  5  6  1  0  0  0
  5  7  1  0  0  0
M  END
$$$$
