


  7  5  0  0  1  0            999 V2000
    0.0000    0.0000    0.0000 N   0  0  0  0  0  0
   -0.8442    0.4963    0.3026 H   0  0  0  0  0  0
    0.2317   -0.6716    0.7388 H   0  0  0  0  0  0
   -0.2562   -0.5456   -0.8290 H   0  0  0  0  0  0
   -0.0993   -2.3307    6.5354 O   0  0  0  0  0  0
   -1.0036   -2.6382    6.2989 H   0  0  0  0  0  0
    0.5036   -2.9177    6.0254 H   0  0  0  0  0  0
  1  2  1  0  0  0
  1  3  1  0  0  0
  1  4  1  0  0  0
  5  6  1  0  0  0
  5  7  1  0  0  0
M  END
$$$$
