


  7  5  0  0  1  0            999 V2000
    0.0000    0.0000    0.0000 N   0  0  0  0  0  0
    0.1799   -0.9051   -0.4461 H   0  0  0  0  0  0
    0.2151   -0.1107    0.9961 H   0  0  0  0  0  0
    0.6844    0.6612   -0.3809 H   0  0  0  0  0  0
   -1.1542    1.7349   -1.1582 O   0  0  0  0  0  0
   -0.4038    1.6271   -0.5310 H   0  0  0  0  0  0
   -0.8422    1.3166   -1.9924 H   0  0  0  0  0  0
  1  2  1  0  0  0
  1  3  1  0  0  0
  1  4  1  0  0  0
  5  6  1  0  0  0
  5  7  1  0  0  0
M  END
$$$$
