


  7  5  0  0  1  0            999 V2000
    0.0000    0.0000    0.0000 N   0  0  0  0  0  0
    0.1799   -0.9051   -0.4461 H   0  0  0  0  0  0
    0.2151   -0.1107    0.9961 H   0  0  0  0  0  0
    0.6844    0.6612   -0.3809 H   0  0  0  0  0  0
   -2.3097    3.5241   -2.2644 O   0  0  0  0  0  0
   -1.5592    3.4163   -1.6372 H   0  0  0  0  0  0
   -1.9977    3.1058   -3.0986 H   0  0  0  0  0  0
  1  2  1  0  0  0
  1  3  1  0  0  0
  1  4  1  0  0  0
  5  6  1  0  0  0
  5  7  1  0  0  0
M  END
$$$$
