


  7  5  0  0  1  0            999 V2000
    0.0000    0.0000    0.0000 N   0  0  0  0  0  0
    0.0913    0.7520    0.6905 H   0  0  0  0  0  0
   -0.9438    0.0699   -0.3936 H   0  0  0  0  0  0
    0.6558    0.2111   -0.7589 H   0  0  0  0  0  0
    1.7521   -3.3131    0.5810 O   0  0  0  0  0  0
    2.6167   -2.8433    0.5857 H   0  0  0  0  0  0
    1.0930   -2.6173    0.3578 H   0  0  0  0  0  0
  1  2  1  0  0  0
  1  3  1  0  0  0
  1  4  1  0  0  0
  5  6  1  0  0  0
  5  7  1  0  0  0
M  END
$$$$
