


  7  5  0  0  1  0            999 V2000
    0.0000    0.0000    0.0000 N   0  0  0  0  0  0
   -0.2791   -0.3451   -0.9239 H   0  0  0  0  0  0
   -0.6252    0.7794    0.2284 H   0  0  0  0  0  0
   -0.2001   -0.7488    0.6707 H   0  0  0  0  0  0
   -4.9723    4.4976   -2.1277 O   0  0  0  0  0  0
   -5.6256    5.2318   -2.0800 H   0  0  0  0  0  0
   -4.6570    4.5063   -3.0598 H   0  0  0  0  0  0
  1  2  1  0  0  0
  1  3  1  0  0  0
  1  4  1  0  0  0
  5  6  1  0  0  0
  5  7  1  0  0  0
M  END
$$$$
