


  7  5  0  0  1  0            999 V2000
    0.0000    0.0000    0.0000 N   0  0  0  0  0  0
    0.5840   -0.6388   -0.5492 H   0  0  0  0  0  0
    0.3830    0.9416   -0.1318 H   0  0  0  0  0  0
   -0.9314   -0.0054   -0.4279 H   0  0  0  0  0  0
    1.2992    5.6272   -0.0049 O   0  0  0  0  0  0
    1.6493    6.2169   -0.7105 H   0  0  0  0  0  0
    1.3762    6.1561    0.8213 H   0  0  0  0  0  0
  1  2  1  0  0  0
  1  3  1  0  0  0
  1  4  1  0  0  0
  5  6  1  0  0  0
  5  7  1  0  0  0
M  END
$$$$
