


 30 30  0  0  1  0            999 V2000
    2.2442   -0.5727    2.5481 C   0  0  0  0  0  0
    0.8748   -0.0612    3.0002 C   0  0  0  0  0  0
    1.0172    0.9602    4.1305 C   0  0  0  0  0  0
    1.9238    2.1192    3.7109 C   0  0  0  0  0  0
    3.2933    1.6077    3.2588 C   0  0  0  0  0  0
    3.1509    0.5863    2.1284 C   0  0  0  0  0  0
    2.1272   -1.2878    1.7112 H   0  0  0  0  0  0
    2.7200   -1.1134    3.3887 H   0  0  0  0  0  0
    0.3719    0.4230    2.1411 H   0  0  0  0  0  0
    0.2408   -0.9073    3.3281 H   0  0  0  0  0  0
    1.4612    0.4592    5.0122 H   0  0  0  0  0  0
    0.0215    1.3427    4.4268 H   0  0  0  0  0  0
    2.0409    2.8343    4.5477 H   0  0  0  0  0  0
    1.4480    2.6598    2.8702 H   0  0  0  0  0  0
    3.7962    1.1234    4.1178 H   0  0  0  0  0  0
    3.9273    2.4538    2.9308 H   0  0  0  0  0  0
    4.1466    0.2038    1.8321 H   0  0  0  0  0  0
    2.7068    1.0873    1.2468 H   0  0  0  0  0  0
    0.5677    1.3376   -0.4823 O   0  0  0  0  0  0
   -0.6969    1.8080   -0.0815 C   0  0  0  0  0  0
   -0.5984    2.7264    0.9805 O   0  0  0  0  0  0
    0.2215    3.7999    0.5852 C   0  0  0  0  0  0
    1.5010    3.3619    0.1953 O   0  0  0  0  0  0
    1.3690    2.4333   -0.8542 C   0  0  0  0  0  0
   -1.2266    2.2662   -0.9388 H   0  0  0  0  0  0
   -1.2967    0.9431    0.2615 H   0  0  0  0  0  0
    0.3364    4.4852    1.4470 H   0  0  0  0  0  0
   -0.2574    4.3683   -0.2352 H   0  0  0  0  0  0
    2.3768    2.0551   -1.1125 H   0  0  0  0  0  0
    0.9535    2.9261   -1.7542 H   0  0  0  0  0  0
  1  2  1  0  0  0
  2  3  1  0  0  0
  3  4  1  0  0  0
  4  5  1  0  0  0
  5  6  1  0  0  0
  1  6  1  0  0  0
  1  7  1  0  0  0
  1  8  1  0  0  0
  2  9  1  0  0  0
  2 10  1  0  0  0
  3 11  1  0  0  0
  3 12  1  0  0  0
  4 13  1  0  0  0
  4 14  1  0  0  0
  5 15  1  0  0  0
  5 16  1  0  0  0
  6 17  1  0  0  0
  6 18  1  0  0  0
 19 20  1  0  0  0
 20 21  1  0  0  0
 21 22  1  0  0  0
 22 23  1  0  0  0
 23 24  1  0  0  0
 19 24  1  0  0  0
 20 25  1  0  0  0
 20 26  1  0  0  0
 22 27  1  0  0  0
 22 28  1  0  0  0
 24 29  1  0  0  0
 24 30  1  0  0  0
M  END
$$$$
