


 20 18  0  0  1  0            999 V2000
  -15.2782   -3.1273   -1.4346 C   0  0  0  0  0  0
  -15.3446   -4.5860   -0.9991 C   0  0  0  0  0  0
  -16.6568   -5.1519   -0.4556 C   0  0  0  0  0  0
  -17.7535   -4.5671   -0.4975 O   0  0  0  0  0  0
  -14.3410   -2.9149   -1.9760 H   0  0  0  0  0  0
  -15.3380   -2.4589   -0.5591 H   0  0  0  0  0  0
  -16.1280   -2.9085   -2.1029 H   0  0  0  0  0  0
  -15.1338   -5.1625   -1.9203 H   0  0  0  0  0  0
  -14.4869   -4.7228   -0.3127 H   0  0  0  0  0  0
  -16.6418   -6.1953   -0.0569 H   0  0  0  0  0  0
  -10.1029   -0.4274    3.4456 C   0  0  0  0  0  0
   -9.4300   -1.7720    3.2754 C   0  0  0  0  0  0
   -7.9232   -1.7497    2.8475 C   0  0  0  0  0  0
   -7.3201   -0.7069    2.7355 O   0  0  0  0  0  0
   -9.7529    0.1599    4.3112 H   0  0  0  0  0  0
  -11.1882   -0.5946    3.5495 H   0  0  0  0  0  0
   -9.9233    0.1574    2.5278 H   0  0  0  0  0  0
   -9.5664   -2.4266    4.1576 H   0  0  0  0  0  0
   -9.9486   -2.2469    2.4204 H   0  0  0  0  0  0
   -7.4688   -2.7577    2.6888 H   0  0  0  0  0  0
  1  2  1  0  0  0
  2  3  1  0  0  0
  3  4  2  0  0  0
  1  5  1  0  0  0
  1  6  1  0  0  0
  1  7  1  0  0  0
  2  8  1  0  0  0
  2  9  1  0  0  0
  3 10  1  0  0  0
 11 12  1  0  0  0
 12 13  1  0  0  0
 13 14  2  0  0  0
 11 15  1  0  0  0
 11 16  1  0  0  0
 11 17  1  0  0  0
 12 18  1  0  0  0
 12 19  1  0  0  0
 13 20  1  0  0  0
M  END
$$$$
