


 20 18  0  0  1  0            999 V2000
   -4.6540   -0.2553   -2.5911 C   0  0  0  0  0  0
   -5.8667    0.6089   -2.9844 C   0  0  0  0  0  0
   -5.9520    1.0893   -4.4398 C   0  0  0  0  0  0
   -5.5672    2.2238   -4.7403 O   0  0  0  0  0  0
   -4.8434   -1.2313   -3.0688 H   0  0  0  0  0  0
   -4.4972   -0.4166   -1.5113 H   0  0  0  0  0  0
   -3.7328    0.1736   -3.0202 H   0  0  0  0  0  0
   -6.6799   -0.0965   -2.7267 H   0  0  0  0  0  0
   -5.9959    1.5141   -2.3604 H   0  0  0  0  0  0
   -6.3119    0.3382   -5.1842 H   0  0  0  0  0  0
   -2.2317   -4.2553   -4.2758 C   0  0  0  0  0  0
   -3.6362   -3.9386   -4.9374 C   0  0  0  0  0  0
   -4.6209   -5.0358   -5.1024 C   0  0  0  0  0  0
   -5.1427   -5.6273   -4.1061 O   0  0  0  0  0  0
   -2.3484   -4.4629   -3.1988 H   0  0  0  0  0  0
   -1.4719   -3.4657   -4.4015 H   0  0  0  0  0  0
   -1.8727   -5.1716   -4.7738 H   0  0  0  0  0  0
   -4.0426   -3.1138   -4.3209 H   0  0  0  0  0  0
   -3.4792   -3.5478   -5.9611 H   0  0  0  0  0  0
   -4.8087   -5.2395   -6.1845 H   0  0  0  0  0  0
  1  2  1  0  0  0
  2  3  1  0  0  0
  3  4  2  0  0  0
  1  5  1  0  0  0
  1  6  1  0  0  0
  1  7  1  0  0  0
  2  8  1  0  0  0
  2  9  1  0  0  0
  3 10  1  0  0  0
 11 12  1  0  0  0
 12 13  1  0  0  0
 13 14  2  0  0  0
 11 15  1  0  0  0
 11 16  1  0  0  0
 11 17  1  0  0  0
 12 18  1  0  0  0
 12 19  1  0  0  0
 13 20  1  0  0  0
M  END
$$$$
