


 20 18  0  0  1  0            999 V2000
    8.3546    9.3538    6.2284 C   0  0  0  0  0  0
    7.8374   10.5604    5.7394 C   0  0  0  0  0  0
    8.9543   11.5364    5.4328 C   0  0  0  0  0  0
   10.2164   11.2160    5.4029 O   0  0  0  0  0  0
    8.6983    8.6439    5.4574 H   0  0  0  0  0  0
    7.5202    8.8934    6.7837 H   0  0  0  0  0  0
    9.1846    9.5395    6.9308 H   0  0  0  0  0  0
    7.3211   10.4321    4.7686 H   0  0  0  0  0  0
    7.1167   11.0143    6.4465 H   0  0  0  0  0  0
    8.7635   12.6176    5.2274 H   0  0  0  0  0  0
    9.0456   10.6595    0.8869 C   0  0  0  0  0  0
    9.3941    9.2261    1.0924 C   0  0  0  0  0  0
    8.2787    8.3456    1.6809 C   0  0  0  0  0  0
    7.1264    8.7061    1.7449 O   0  0  0  0  0  0
    8.9659   11.2092    1.8398 H   0  0  0  0  0  0
    8.1006   10.7801    0.3310 H   0  0  0  0  0  0
    9.8624   11.1024    0.2925 H   0  0  0  0  0  0
    9.6059    8.8435    0.0754 H   0  0  0  0  0  0
   10.3074    9.0853    1.7019 H   0  0  0  0  0  0
    8.6357    7.3609    2.0689 H   0  0  0  0  0  0
  1  2  1  0  0  0
  2  3  1  0  0  0
  3  4  2  0  0  0
  1  5  1  0  0  0
  1  6  1  0  0  0
  1  7  1  0  0  0
  2  8  1  0  0  0
  2  9  1  0  0  0
  3 10  1  0  0  0
 11 12  1  0  0  0
 12 13  1  0  0  0
 13 14  2  0  0  0
 11 15  1  0  0  0
 11 16  1  0  0  0
 11 17  1  0  0  0
 12 18  1  0  0  0
 12 19  1  0  0  0
 13 20  1  0  0  0
M  END
$$$$
