


 20 18  0  0  1  0            999 V2000
   -1.9625   -2.3485    4.6091 C   0  0  0  0  0  0
   -0.5140   -2.6096    4.5147 C   0  0  0  0  0  0
    0.3102   -1.7981    5.4661 C   0  0  0  0  0  0
    0.4284   -2.1373    6.6398 O   0  0  0  0  0  0
   -2.5724   -3.1881    4.2355 H   0  0  0  0  0  0
   -2.2262   -1.4413    4.0399 H   0  0  0  0  0  0
   -2.2077   -2.1809    5.6714 H   0  0  0  0  0  0
   -0.1908   -3.6506    4.7082 H   0  0  0  0  0  0
   -0.0283   -2.2750    3.5779 H   0  0  0  0  0  0
    0.8389   -0.9323    4.9988 H   0  0  0  0  0  0
    6.4404   -0.9891    2.0798 C   0  0  0  0  0  0
    6.7065    0.3902    1.5328 C   0  0  0  0  0  0
    5.8056    0.7365    0.2693 C   0  0  0  0  0  0
    5.1070   -0.1665   -0.1876 O   0  0  0  0  0  0
    5.7426   -1.0307    2.9330 H   0  0  0  0  0  0
    7.4225   -1.3675    2.4097 H   0  0  0  0  0  0
    6.0596   -1.6480    1.2814 H   0  0  0  0  0  0
    6.5906    1.2253    2.2501 H   0  0  0  0  0  0
    7.6511    0.5513    0.9785 H   0  0  0  0  0  0
    5.9607    1.7768   -0.1068 H   0  0  0  0  0  0
  1  2  1  0  0  0
  2  3  1  0  0  0
  3  4  2  0  0  0
  1  5  1  0  0  0
  1  6  1  0  0  0
  1  7  1  0  0  0
  2  8  1  0  0  0
  2  9  1  0  0  0
  3 10  1  0  0  0
 11 12  1  0  0  0
 12 13  1  0  0  0
 13 14  2  0  0  0
 11 15  1  0  0  0
 11 16  1  0  0  0
 11 17  1  0  0  0
 12 18  1  0  0  0
 12 19  1  0  0  0
 13 20  1  0  0  0
M  END
$$$$
