


 20 18  0  0  1  0            999 V2000
    7.0001    1.6898    1.6160 C   0  0  0  0  0  0
    6.0390    2.5089    0.6678 C   0  0  0  0  0  0
    4.9738    1.6113    0.0273 C   0  0  0  0  0  0
    4.9349    0.3816    0.2008 O   0  0  0  0  0  0
    7.8771    1.2786    1.0884 H   0  0  0  0  0  0
    6.4585    0.8589    2.0986 H   0  0  0  0  0  0
    7.3532    2.3815    2.3992 H   0  0  0  0  0  0
    5.6911    3.3414    1.3092 H   0  0  0  0  0  0
    6.6953    2.9378   -0.1137 H   0  0  0  0  0  0
    4.2549    2.1015   -0.6730 H   0  0  0  0  0  0
   -4.5616   -1.7850    1.0536 C   0  0  0  0  0  0
   -5.7291   -1.3835    0.1391 C   0  0  0  0  0  0
   -5.5175   -1.3538   -1.3777 C   0  0  0  0  0  0
   -4.4341   -1.5859   -1.9555 O   0  0  0  0  0  0
   -4.9660   -2.1684    2.0055 H   0  0  0  0  0  0
   -3.8268   -0.9934    1.2769 H   0  0  0  0  0  0
   -4.0441   -2.6089    0.5340 H   0  0  0  0  0  0
   -6.5411   -2.1344    0.1863 H   0  0  0  0  0  0
   -6.1473   -0.4141    0.4721 H   0  0  0  0  0  0
   -6.5099   -1.1165   -1.8322 H   0  0  0  0  0  0
  1  2  1  0  0  0
  2  3  1  0  0  0
  3  4  2  0  0  0
  1  5  1  0  0  0
  1  6  1  0  0  0
  1  7  1  0  0  0
  2  8  1  0  0  0
  2  9  1  0  0  0
  3 10  1  0  0  0
 11 12  1  0  0  0
 12 13  1  0  0  0
 13 14  2  0  0  0
 11 15  1  0  0  0
 11 16  1  0  0  0
 11 17  1  0  0  0
 12 18  1  0  0  0
 12 19  1  0  0  0
 13 20  1  0  0  0
M  END
$$$$
