


 20 18  0  0  1  0            999 V2000
   -7.6224   -6.5325    1.8360 C   0  0  0  0  0  0
   -8.9971   -7.1902    2.1423 C   0  0  0  0  0  0
   -8.9422   -7.8417    3.4920 C   0  0  0  0  0  0
   -9.6093   -8.8671    3.6677 O   0  0  0  0  0  0
   -6.7685   -7.1678    1.5463 H   0  0  0  0  0  0
   -7.3632   -5.9966    2.7645 H   0  0  0  0  0  0
   -7.7956   -5.7908    1.0382 H   0  0  0  0  0  0
   -9.8292   -6.4822    2.3202 H   0  0  0  0  0  0
   -9.3321   -7.9183    1.3787 H   0  0  0  0  0  0
   -8.3096   -7.3423    4.2654 H   0  0  0  0  0  0
   -5.0427   -3.4779    0.5427 C   0  0  0  0  0  0
   -5.4383   -4.0819   -0.8586 C   0  0  0  0  0  0
   -6.6009   -3.3925   -1.5328 C   0  0  0  0  0  0
   -7.4572   -2.8147   -0.8525 O   0  0  0  0  0  0
   -4.3140   -4.0880    1.1025 H   0  0  0  0  0  0
   -5.9660   -3.3961    1.1406 H   0  0  0  0  0  0
   -4.6228   -2.4674    0.4040 H   0  0  0  0  0  0
   -4.5461   -3.9592   -1.5023 H   0  0  0  0  0  0
   -5.5978   -5.1670   -0.7078 H   0  0  0  0  0  0
   -6.7088   -3.4989   -2.6395 H   0  0  0  0  0  0
  1  2  1  0  0  0
  2  3  1  0  0  0
  3  4  2  0  0  0
  1  5  1  0  0  0
  1  6  1  0  0  0
  1  7  1  0  0  0
  2  8  1  0  0  0
  2  9  1  0  0  0
  3 10  1  0  0  0
 11 12  1  0  0  0
 12 13  1  0  0  0
 13 14  2  0  0  0
 11 15  1  0  0  0
 11 16  1  0  0  0
 11 17  1  0  0  0
 12 18  1  0  0  0
 12 19  1  0  0  0
 13 20  1  0  0  0
M  END
$$$$
