


 11  9  0  0  1  0            999 V2000
    6.4811    5.2572   -0.2040 N   0  0  0  0  0  0
    5.7635    4.5292   -0.1285 H   0  0  0  0  0  0
    6.0482    6.1350    0.1005 H   0  0  0  0  0  0
    7.2088    5.0305    0.4813 H   0  0  0  0  0  0
    0.0026    2.8046    1.6306 O   0  0  0  0  0  0
    0.1837    1.5599    1.5340 C   0  0  0  0  0  0
    1.1563    0.9402    1.0225 O   0  0  0  0  0  0
   -0.9240    0.6697    2.1619 C   0  0  0  0  0  0
   -0.6687    0.4832    3.2186 H   0  0  0  0  0  0
   -1.9071    1.1680    2.1202 H   0  0  0  0  0  0
   -0.9987   -0.3000    1.6416 H   0  0  0  0  0  0
  1  2  1  0  0  0
  1  3  1  0  0  0
  1  4  1  0  0  0
  5  6  1  0  0  0
  6  7  2  0  0  0
  6  8  1  0  0  0
  8  9  1  0  0  0
  8 10  1  0  0  0
  8 11  1  0  0  0
M  CHG  1   5  -1
M  END
$$$$
