


 18 16  0  0  1  0            999 V2000
    0.0997    2.0462    4.0265 C   0  0  0  0  0  0
    1.7662    2.3576    4.6490 S   0  0  0  0  0  0
    2.4464    0.4718    5.0174 S   0  0  0  0  0  0
    3.0631   -0.0337    3.3969 C   0  0  0  0  0  0
   -0.3689    3.0258    3.8329 H   0  0  0  0  0  0
   -0.5121    1.5037    4.7667 H   0  0  0  0  0  0
    0.1091    1.4688    3.0868 H   0  0  0  0  0  0
    2.2603   -0.0736    2.6416 H   0  0  0  0  0  0
    3.8523    0.6469    3.0358 H   0  0  0  0  0  0
    3.4927   -1.0435    3.5074 H   0  0  0  0  0  0
    0.5397    2.2565   -2.5305 F   0  0  0  0  0  0
    1.2429    3.4497   -2.4530 C   0  0  0  0  0  0
    0.4019    4.5943   -2.9333 C   0  0  0  0  0  0
   -0.6143    4.8706   -2.0304 F   0  0  0  0  0  0
    1.5617    3.6005   -1.4036 H   0  0  0  0  0  0
    2.1559    3.3628   -3.0729 H   0  0  0  0  0  0
    1.0260    5.5009   -3.0513 H   0  0  0  0  0  0
   -0.0549    4.3699   -3.9164 H   0  0  0  0  0  0
  1  2  1  0  0  0
  2  3  1  0  0  0
  3  4  1  0  0  0
  1  5  1  0  0  0
  1  6  1  0  0  0
  1  7  1  0  0  0
  4  8  1  0  0  0
  4  9  1  0  0  0
  4 10  1  0  0  0
 11 12  1  0  0  0
 12 13  1  0  0  0
 13 14  1  0  0  0
 12 15  1  0  0  0
 12 16  1  0  0  0
 13 17  1  0  0  0
 13 18  1  0  0  0
M  END
$$$$
