


 17 15  0  0  1  0            999 V2000
   -3.3906    5.2762   -0.0372 C   0  0  0  0  0  0
   -1.7590    5.5855   -0.7404 S   0  0  0  0  0  0
   -1.6849    4.2135   -2.2600 S   0  0  0  0  0  0
   -3.5575    6.0329    0.7478 H   0  0  0  0  0  0
   -3.4609    4.2745    0.4191 H   0  0  0  0  0  0
   -4.1861    5.3742   -0.7950 H   0  0  0  0  0  0
   -1.2019    3.1645   -1.5608 H   0  0  0  0  0  0
    4.2898    0.7041    0.4756 C   0  0  0  0  0  0
    3.4699   -0.9029    0.5601 S   0  0  0  0  0  0
    2.9542   -1.0189    2.5287 S   0  0  0  0  0  0
    1.3829   -0.1292    2.5635 C   0  0  0  0  0  0
    4.6433    0.8404   -0.5603 H   0  0  0  0  0  0
    5.1592    0.7490    1.1528 H   0  0  0  0  0  0
    3.6058    1.5324    0.7257 H   0  0  0  0  0  0
    1.4991    0.9293    2.2758 H   0  0  0  0  0  0
    0.6405   -0.5961    1.8947 H   0  0  0  0  0  0
    1.0015   -0.1729    3.5976 H   0  0  0  0  0  0
  1  2  1  0  0  0
  2  3  1  0  0  0
  1  4  1  0  0  0
  1  5  1  0  0  0
  1  6  1  0  0  0
  3  7  1  0  0  0
  8  9  1  0  0  0
  9 10  1  0  0  0
 10 11  1  0  0  0
  8 12  1  0  0  0
  8 13  1  0  0  0
  8 14  1  0  0  0
 11 15  1  0  0  0
 11 16  1  0  0  0
 11 17  1  0  0  0
M  END
$$$$
