


 26 24  0  0  1  0            999 V2000
    0.5380    2.5067    2.9065 C   0  0  0  0  0  0
    0.5545    1.6739    1.6251 C   0  0  0  0  0  0
    1.5215    2.2267    0.5805 C   0  0  0  0  0  0
    1.5379    1.3940   -0.7010 C   0  0  0  0  0  0
   -0.1681    2.0843    3.6412 H   0  0  0  0  0  0
    0.2329    3.5423    2.6805 H   0  0  0  0  0  0
    1.5445    2.5268    3.3572 H   0  0  0  0  0  0
    0.8458    0.6333    1.8654 H   0  0  0  0  0  0
   -0.4631    1.6467    1.1900 H   0  0  0  0  0  0
    1.2301    3.2673    0.3402 H   0  0  0  0  0  0
    2.5390    2.2539    1.0156 H   0  0  0  0  0  0
    0.5314    1.3738   -1.1517 H   0  0  0  0  0  0
    1.8430    0.3584   -0.4749 H   0  0  0  0  0  0
    2.2440    1.8163   -1.4356 H   0  0  0  0  0  0
    6.4125   -2.4731    1.8275 C   0  0  0  0  0  0
    5.1964   -3.2283    2.9208 S   0  0  0  0  0  0
    5.3085   -2.0603    4.2997 C   0  0  0  0  0  0
    4.3479   -2.4758    5.4073 C   0  0  0  0  0  0
    6.1237   -1.4450    1.5514 H   0  0  0  0  0  0
    6.4697   -3.0811    0.9091 H   0  0  0  0  0  0
    7.4118   -2.4446    2.2935 H   0  0  0  0  0  0
    6.3517   -2.0434    4.6696 H   0  0  0  0  0  0
    5.0663   -1.0457    3.9290 H   0  0  0  0  0  0
    4.4134   -1.7663    6.2493 H   0  0  0  0  0  0
    3.3098   -2.4848    5.0348 H   0  0  0  0  0  0
    4.5978   -3.4845    5.7769 H   0  0  0  0  0  0
  1  2  1  0  0  0
  2  3  1  0  0  0
  3  4  1  0  0  0
  1  5  1  0  0  0
  1  6  1  0  0  0
  1  7  1  0  0  0
  2  8  1  0  0  0
  2  9  1  0  0  0
  3 10  1  0  0  0
  3 11  1  0  0  0
  4 12  1  0  0  0
  4 13  1  0  0  0
  4 14  1  0  0  0
 15 16  1  0  0  0
 16 17  1  0  0  0
 17 18  1  0  0  0
 15 19  1  0  0  0
 15 20  1  0  0  0
 15 21  1  0  0  0
 17 22  1  0  0  0
 17 23  1  0  0  0
 18 24  1  0  0  0
 18 25  1  0  0  0
 18 26  1  0  0  0
M  END
$$$$
