


 26 24  0  0  1  0            999 V2000
    0.5380    2.5067    2.9065 C   0  0  0  0  0  0
    0.5545    1.6739    1.6251 C   0  0  0  0  0  0
    1.5215    2.2267    0.5805 C   0  0  0  0  0  0
    1.5379    1.3940   -0.7010 C   0  0  0  0  0  0
   -0.1681    2.0843    3.6412 H   0  0  0  0  0  0
    0.2329    3.5423    2.6805 H   0  0  0  0  0  0
    1.5445    2.5268    3.3572 H   0  0  0  0  0  0
    0.8458    0.6333    1.8654 H   0  0  0  0  0  0
   -0.4631    1.6467    1.1900 H   0  0  0  0  0  0
    1.2301    3.2673    0.3402 H   0  0  0  0  0  0
    2.5390    2.2539    1.0156 H   0  0  0  0  0  0
    0.5314    1.3738   -1.1517 H   0  0  0  0  0  0
    1.8430    0.3584   -0.4749 H   0  0  0  0  0  0
    2.2440    1.8163   -1.4356 H   0  0  0  0  0  0
    5.1272   -1.1419    1.0685 C   0  0  0  0  0  0
    3.9111   -1.8972    2.1618 S   0  0  0  0  0  0
    4.0232   -0.7292    3.5407 C   0  0  0  0  0  0
    3.0626   -1.1446    4.6483 C   0  0  0  0  0  0
    4.8384   -0.1138    0.7923 H   0  0  0  0  0  0
    5.1844   -1.7500    0.1500 H   0  0  0  0  0  0
    6.1265   -1.1135    1.5345 H   0  0  0  0  0  0
    5.0664   -0.7122    3.9106 H   0  0  0  0  0  0
    3.7810    0.2854    3.1700 H   0  0  0  0  0  0
    3.1281   -0.4352    5.4903 H   0  0  0  0  0  0
    2.0245   -1.1537    4.2758 H   0  0  0  0  0  0
    3.3126   -2.1534    5.0179 H   0  0  0  0  0  0
  1  2  1  0  0  0
  2  3  1  0  0  0
  3  4  1  0  0  0
  1  5  1  0  0  0
  1  6  1  0  0  0
  1  7  1  0  0  0
  2  8  1  0  0  0
  2  9  1  0  0  0
  3 10  1  0  0  0
  3 11  1  0  0  0
  4 12  1  0  0  0
  4 13  1  0  0  0
  4 14  1  0  0  0
 15 16  1  0  0  0
 16 17  1  0  0  0
 17 18  1  0  0  0
 15 19  1  0  0  0
 15 20  1  0  0  0
 15 21  1  0  0  0
 17 22  1  0  0  0
 17 23  1  0  0  0
 18 24  1  0  0  0
 18 25  1  0  0  0
 18 26  1  0  0  0
M  END
$$$$
