


  4  2  0  0  1  0            999 V2000
    0.7477    1.8049   -2.2543 O   0  0  0  0  0  0
   -0.0238    1.2351   -2.4743 H   0  0  0  0  0  0
    0.4857    2.2685   -1.4269 H   0  0  0  0  0  0
    0.2370    0.6847   -0.8277 He  0  0  0  0  0  0
  1  2  1  0  0  0
  1  3  1  0  0  0
M  END
$$$$
