


  4  2  0  0  1  0            999 V2000
    1.8603   -0.2029    1.7596 O   0  0  0  0  0  0
    1.6819    0.7128    1.4465 H   0  0  0  0  0  0
    2.2677   -0.0863    2.6477 H   0  0  0  0  0  0
    0.0000    0.0000    0.0000 He  0  0  0  0  0  0
  1  2  1  0  0  0
  1  3  1  0  0  0
M  END
$$$$
