


  4  2  0  0  1  0            999 V2000
    1.9442   -2.4750    4.4908 O   0  0  0  0  0  0
    1.0924   -1.9881    4.4160 H   0  0  0  0  0  0
    1.9094   -3.1475    3.7733 H   0  0  0  0  0  0
    0.0000    0.0000    0.0000 He  0  0  0  0  0  0
  1  2  1  0  0  0
  1  3  1  0  0  0
M  END
$$$$
