


  4  2  0  0  1  0            999 V2000
    2.9200   -4.4816    1.2013 O   0  0  0  0  0  0
    2.7391   -5.4472    1.2584 H   0  0  0  0  0  0
    3.8252   -4.3765    1.5727 H   0  0  0  0  0  0
    0.0000    0.0000    0.0000 He  0  0  0  0  0  0
  1  2  1  0  0  0
  1  3  1  0  0  0
M  END
$$$$
