


  4  2  0  0  1  0            999 V2000
   -1.4909   -1.7923   -1.8115 O   0  0  0  0  0  0
   -0.6222   -1.4577   -2.1301 H   0  0  0  0  0  0
   -2.1094   -1.0377   -1.9393 H   0  0  0  0  0  0
    0.0000    0.0000    0.0000 He  0  0  0  0  0  0
  1  2  1  0  0  0
  1  3  1  0  0  0
M  END
$$$$
