


  4  2  0  0  1  0            999 V2000
   -2.7730   -4.2880   -1.6485 O   0  0  0  0  0  0
   -2.3468   -4.2663   -2.5352 H   0  0  0  0  0  0
   -2.0490   -4.0672   -1.0198 H   0  0  0  0  0  0
    0.0000    0.0000    0.0000 He  0  0  0  0  0  0
  1  2  1  0  0  0
  1  3  1  0  0  0
M  END
$$$$
