


 20 19  0  0  1  0            999 V2000
    1.0740    2.9720    0.7681 C   0  0  0  0  0  0
    0.1164    2.9066    1.9355 C   0  0  0  0  0  0
    0.0488    1.9274    2.6603 O   0  0  0  0  0  0
   -0.7526    4.1237    2.1535 C   0  0  0  0  0  0
    1.6626    2.0416    0.7005 H   0  0  0  0  0  0
    1.7689    3.8198    0.8900 H   0  0  0  0  0  0
    0.5179    3.1057   -0.1750 H   0  0  0  0  0  0
   -0.1258    5.0120    2.3400 H   0  0  0  0  0  0
   -1.3758    4.3135    1.2634 H   0  0  0  0  0  0
   -1.4159    3.9726    3.0217 H   0  0  0  0  0  0
    3.7633   -1.1254    2.2153 C   0  0  0  0  0  0
    4.3608   -2.1454    1.4952 C   0  0  0  0  0  0
    3.3712   -2.7044    0.6477 C   0  0  0  0  0  0
    2.1936   -2.0121    0.8710 C   0  0  0  0  0  0
    2.4519   -1.0609    1.8230 N   0  0  0  0  0  0
    1.7642   -0.3975    2.1884 H   0  0  0  0  0  0
    4.1618   -0.4461    2.9688 H   0  0  0  0  0  0
    5.4041   -2.4501    1.5775 H   0  0  0  0  0  0
    3.4969   -3.5275   -0.0558 H   0  0  0  0  0  0
    1.2011   -2.1185    0.4332 H   0  0  0  0  0  0
  1  2  1  0  0  0
  2  3  2  0  0  0
  2  4  1  0  0  0
  1  5  1  0  0  0
  1  6  1  0  0  0
  1  7  1  0  0  0
  4  8  1  0  0  0
  4  9  1  0  0  0
  4 10  1  0  0  0
 11 12  2  0  0  0
 12 13  1  0  0  0
 13 14  2  0  0  0
 14 15  1  0  0  0
 15 16  1  0  0  0
 11 15  1  0  0  0
 11 17  1  0  0  0
 12 18  1  0  0  0
 13 19  1  0  0  0
 14 20  1  0  0  0
M  END
$$$$
