


 23 23  0  0  1  0            999 V2000
    0.8551    0.3206   -0.1209 C   0  0  0  0  0  0
    0.2529    0.6219   -1.4878 C   0  0  0  0  0  0
    0.6957    2.0695   -1.6952 C   0  0  0  0  0  0
    0.5341    2.6333   -0.2888 C   0  0  0  0  0  0
    0.8242    1.5542    0.6109 O   0  0  0  0  0  0
    1.9029   -0.0247   -0.2122 H   0  0  0  0  0  0
    0.2976   -0.4439    0.4538 H   0  0  0  0  0  0
    0.6023   -0.0732   -2.2754 H   0  0  0  0  0  0
   -0.8516    0.5584   -1.4488 H   0  0  0  0  0  0
    0.1013    2.6185   -2.4506 H   0  0  0  0  0  0
    1.7565    2.1069   -2.0096 H   0  0  0  0  0  0
   -0.5007    2.9863   -0.1155 H   0  0  0  0  0  0
    1.2186    3.4735   -0.0633 H   0  0  0  0  0  0
    1.9950    1.8390    3.3483 C   0  0  0  0  0  0
    1.6386    1.8880    4.6355 N   0  0  0  0  0  0
    2.3073    1.9983    5.4191 H   0  0  0  0  0  0
    0.2760    1.7719    4.7584 C   0  0  0  0  0  0
   -0.2167    1.6468    3.4866 C   0  0  0  0  0  0
    0.8677    1.6921    2.6456 N   0  0  0  0  0  0
    0.8325    1.6236    1.6125 H   0  0  0  0  0  0
    3.0073    1.9058    2.9496 H   0  0  0  0  0  0
   -0.2304    1.7870    5.7235 H   0  0  0  0  0  0
   -1.2379    1.5310    3.1233 H   0  0  0  0  0  0
  1  2  1  0  0  0
  2  3  1  0  0  0
  3  4  1  0  0  0
  4  5  1  0  0  0
  1  5  1  0  0  0
  1  6  1  0  0  0
  1  7  1  0  0  0
  2  8  1  0  0  0
  2  9  1  0  0  0
  3 10  1  0  0  0
  3 11  1  0  0  0
  4 12  1  0  0  0
  4 13  1  0  0  0
 14 15  1  0  0  0
 15 16  1  0  0  0
 15 17  1  0  0  0
 17 18  2  0  0  0
 18 19  1  0  0  0
 19 20  1  0  0  0
 14 19  2  0  0  0
 14 21  1  0  0  0
 17 22  1  0  0  0
 18 23  1  0  0  0
M  CHG  1  19   1
M  END
$$$$
