


 20 19  0  0  1  0            999 V2000
    1.7779    1.9825    3.4352 C   0  0  0  0  0  0
    1.8779    0.5277    3.0038 C   0  0  0  0  0  0
    0.8549    0.2399    1.9905 N   0  0  0  0  0  0
    1.8952    2.6440    2.5604 H   0  0  0  0  0  0
    2.5645    2.2266    4.1688 H   0  0  0  0  0  0
    0.7947    2.1786    3.8951 H   0  0  0  0  0  0
    2.8648    0.3485    2.5354 H   0  0  0  0  0  0
    1.8053   -0.1240    3.8957 H   0  0  0  0  0  0
    0.9123   -0.7407    1.6943 H   0  0  0  0  0  0
   -0.0780    0.3592    2.4004 H   0  0  0  0  0  0
    1.7214    1.6571   -1.2921 C   0  0  0  0  0  0
    1.6704    2.7612   -2.0435 N   0  0  0  0  0  0
    2.0541    2.8282   -3.0035 H   0  0  0  0  0  0
    1.0433    3.7745   -1.3613 C   0  0  0  0  0  0
    0.6980    3.2609   -0.1395 C   0  0  0  0  0  0
    1.1302    1.9576   -0.1317 N   0  0  0  0  0  0
    1.0206    1.2910    0.6537 H   0  0  0  0  0  0
    2.1596    0.6989   -1.5711 H   0  0  0  0  0  0
    0.8930    4.7658   -1.7890 H   0  0  0  0  0  0
    0.1871    3.7157    0.7092 H   0  0  0  0  0  0
  1  2  1  0  0  0
  2  3  1  0  0  0
  1  4  1  0  0  0
  1  5  1  0  0  0
  1  6  1  0  0  0
  2  7  1  0  0  0
  2  8  1  0  0  0
  3  9  1  0  0  0
  3 10  1  0  0  0
 11 12  1  0  0  0
 12 13  1  0  0  0
 12 14  1  0  0  0
 14 15  2  0  0  0
 15 16  1  0  0  0
 16 17  1  0  0  0
 11 16  2  0  0  0
 11 18  1  0  0  0
 14 19  1  0  0  0
 15 20  1  0  0  0
M  CHG  1  16   1
M  END
$$$$
