


 24 22  0  0  1  0            999 V2000
    4.2693   -2.8473   -7.6912 C   0  0  0  0  0  0
    5.4128   -3.7599   -7.8484 C   0  0  0  0  0  0
    5.9559   -3.9642   -9.0264 C   0  0  0  0  0  0
    5.7302   -4.4712   -6.5929 C   0  0  0  0  0  0
    4.0967   -2.1273   -8.5088 H   0  0  0  0  0  0
    4.4392   -2.2852   -6.7575 H   0  0  0  0  0  0
    3.3640   -3.4656   -7.5700 H   0  0  0  0  0  0
    6.8394   -4.5881   -9.2039 H   0  0  0  0  0  0
    5.5840   -3.3586   -9.8607 H   0  0  0  0  0  0
    4.8766   -5.0590   -6.2155 H   0  0  0  0  0  0
    6.0211   -3.7383   -5.8217 H   0  0  0  0  0  0
    6.5784   -5.1544   -6.7668 H   0  0  0  0  0  0
    4.2270    0.5601   -8.4173 C   0  0  0  0  0  0
    2.9236    0.7640   -7.7023 C   0  0  0  0  0  0
    2.4437    1.9938   -7.3596 C   0  0  0  0  0  0
    2.1748   -0.4197   -7.3268 C   0  0  0  0  0  0
    4.6589    1.5355   -8.6975 H   0  0  0  0  0  0
    4.1758   -0.0738   -9.3185 H   0  0  0  0  0  0
    4.8952    0.0768   -7.6848 H   0  0  0  0  0  0
    1.4691    2.2021   -6.9035 H   0  0  0  0  0  0
    3.0574    2.8495   -7.6632 H   0  0  0  0  0  0
    1.2028   -0.2080   -6.8504 H   0  0  0  0  0  0
    2.7988   -0.9870   -6.6159 H   0  0  0  0  0  0
    2.0007   -1.0448   -8.2187 H   0  0  0  0  0  0
  1  2  1  0  0  0
  2  3  2  0  0  0
  2  4  1  0  0  0
  1  5  1  0  0  0
  1  6  1  0  0  0
  1  7  1  0  0  0
  3  8  1  0  0  0
  3  9  1  0  0  0
  4 10  1  0  0  0
  4 11  1  0  0  0
  4 12  1  0  0  0
 13 14  1  0  0  0
 14 15  2  0  0  0
 14 16  1  0  0  0
 13 17  1  0  0  0
 13 18  1  0  0  0
 13 19  1  0  0  0
 15 20  1  0  0  0
 15 21  1  0  0  0
 16 22  1  0  0  0
 16 23  1  0  0  0
 16 24  1  0  0  0
M  END
$$$$
