


 24 22  0  0  1  0            999 V2000
   -5.7952   -0.4319   -0.8311 C   0  0  0  0  0  0
   -5.4468   -0.3769   -2.2785 C   0  0  0  0  0  0
   -4.2852    0.1792   -2.6902 C   0  0  0  0  0  0
   -6.4632   -0.9243   -3.3133 C   0  0  0  0  0  0
   -6.1425    0.5531   -0.4766 H   0  0  0  0  0  0
   -4.9240   -0.7361   -0.2268 H   0  0  0  0  0  0
   -6.6037   -1.1663   -0.6774 H   0  0  0  0  0  0
   -3.9881    0.2592   -3.7422 H   0  0  0  0  0  0
   -3.5596    0.4922   -1.9307 H   0  0  0  0  0  0
   -7.4588   -0.4579   -3.4021 H   0  0  0  0  0  0
   -6.5857   -1.9388   -2.8983 H   0  0  0  0  0  0
   -6.0223   -1.0072   -4.3209 H   0  0  0  0  0  0
   -1.2459    4.4570    0.1866 C   0  0  0  0  0  0
   -2.7790    4.3065    0.3077 C   0  0  0  0  0  0
   -3.4961    5.2523    0.9189 C   0  0  0  0  0  0
   -3.3357    3.0443   -0.3065 C   0  0  0  0  0  0
   -0.9314    4.2151   -0.8425 H   0  0  0  0  0  0
   -0.7299    3.7738    0.8820 H   0  0  0  0  0  0
   -0.9369    5.4909    0.4151 H   0  0  0  0  0  0
   -4.5743    5.1413    1.0813 H   0  0  0  0  0  0
   -3.0113    6.1522    1.3145 H   0  0  0  0  0  0
   -2.9905    2.2248    0.3460 H   0  0  0  0  0  0
   -2.9106    2.8951   -1.3133 H   0  0  0  0  0  0
   -4.4353    2.9974   -0.3785 H   0  0  0  0  0  0
  1  2  1  0  0  0
  2  3  2  0  0  0
  2  4  1  0  0  0
  1  5  1  0  0  0
  1  6  1  0  0  0
  1  7  1  0  0  0
  3  8  1  0  0  0
  3  9  1  0  0  0
  4 10  1  0  0  0
  4 11  1  0  0  0
  4 12  1  0  0  0
 13 14  1  0  0  0
 14 15  2  0  0  0
 14 16  1  0  0  0
 13 17  1  0  0  0
 13 18  1  0  0  0
 13 19  1  0  0  0
 15 20  1  0  0  0
 15 21  1  0  0  0
 16 22  1  0  0  0
 16 23  1  0  0  0
 16 24  1  0  0  0
M  END
$$$$
