


 24 22  0  0  1  0            999 V2000
    1.6326   10.5143    9.3584 C   0  0  0  0  0  0
    1.0963   11.3877    8.2088 C   0  0  0  0  0  0
    0.4518   12.5010    8.5163 C   0  0  0  0  0  0
    1.4156   10.8759    6.7744 C   0  0  0  0  0  0
    2.7065   10.3924    9.1379 H   0  0  0  0  0  0
    1.1492    9.5240    9.3117 H   0  0  0  0  0  0
    1.5264   10.9097   10.3826 H   0  0  0  0  0  0
    0.1044   13.2165    7.7624 H   0  0  0  0  0  0
    0.2307   12.7204    9.5671 H   0  0  0  0  0  0
    2.4382   11.1598    6.4740 H   0  0  0  0  0  0
    0.7058   11.2818    6.0341 H   0  0  0  0  0  0
    1.3397    9.7755    6.7679 H   0  0  0  0  0  0
    3.0167    9.2722    2.3465 C   0  0  0  0  0  0
    3.0953    8.2100    3.3869 C   0  0  0  0  0  0
    3.4273    6.9399    3.1309 C   0  0  0  0  0  0
    2.8335    8.7555    4.7819 C   0  0  0  0  0  0
    3.7630   10.0650    2.5227 H   0  0  0  0  0  0
    2.0090    9.7072    2.4553 H   0  0  0  0  0  0
    3.1314    8.9045    1.3130 H   0  0  0  0  0  0
    3.4342    6.2934    4.0158 H   0  0  0  0  0  0
    3.6642    6.4821    2.1637 H   0  0  0  0  0  0
    2.7217    7.9512    5.5283 H   0  0  0  0  0  0
    1.8850    9.3152    4.7230 H   0  0  0  0  0  0
    3.6269    9.4425    5.1212 H   0  0  0  0  0  0
  1  2  1  0  0  0
  2  3  2  0  0  0
  2  4  1  0  0  0
  1  5  1  0  0  0
  1  6  1  0  0  0
  1  7  1  0  0  0
  3  8  1  0  0  0
  3  9  1  0  0  0
  4 10  1  0  0  0
  4 11  1  0  0  0
  4 12  1  0  0  0
 13 14  1  0  0  0
 14 15  2  0  0  0
 14 16  1  0  0  0
 13 17  1  0  0  0
 13 18  1  0  0  0
 13 19  1  0  0  0
 15 20  1  0  0  0
 15 21  1  0  0  0
 16 22  1  0  0  0
 16 23  1  0  0  0
 16 24  1  0  0  0
M  END
$$$$
