


 26 26  0  0  1  0            999 V2000
    3.7699    1.6578    2.3710 C   0  0  0  0  0  0
    2.7328    2.7600    2.1194 C   0  0  0  0  0  0
    1.8653    2.7272    3.4009 C   0  0  0  0  0  0
    2.5106    1.6102    4.2314 C   0  0  0  0  0  0
    3.1556    0.7589    3.2892 O   0  0  0  0  0  0
    4.6938    2.0757    2.8153 H   0  0  0  0  0  0
    4.0596    1.0835    1.4701 H   0  0  0  0  0  0
    3.2110    3.7441    1.9510 H   0  0  0  0  0  0
    2.1235    2.5245    1.2257 H   0  0  0  0  0  0
    0.8150    2.4750    3.1586 H   0  0  0  0  0  0
    1.8634    3.6931    3.9417 H   0  0  0  0  0  0
    1.7959    0.9980    4.8143 H   0  0  0  0  0  0
    3.2564    2.0214    4.9386 H   0  0  0  0  0  0
    1.2957   -1.2519    0.1504 C   0  0  0  0  0  0
    0.0349   -0.7538    0.8687 C   0  0  0  0  0  0
   -0.5433    0.2903   -0.1169 C   0  0  0  0  0  0
    0.4563    0.2637   -1.2804 C   0  0  0  0  0  0
    1.6831   -0.1920   -0.7185 O   0  0  0  0  0  0
    1.0823   -2.1634   -0.4405 H   0  0  0  0  0  0
    2.1486   -1.4766    0.8194 H   0  0  0  0  0  0
   -0.6711   -1.5797    1.0806 H   0  0  0  0  0  0
    0.2982   -0.2801    1.8339 H   0  0  0  0  0  0
   -0.5738    1.2948    0.3472 H   0  0  0  0  0  0
   -1.5693    0.0422   -0.4504 H   0  0  0  0  0  0
    0.6397    1.2480   -1.7527 H   0  0  0  0  0  0
    0.1243   -0.4335   -2.0736 H   0  0  0  0  0  0
  1  2  1  0  0  0
  2  3  1  0  0  0
  3  4  1  0  0  0
  4  5  1  0  0  0
  1  5  1  0  0  0
  1  6  1  0  0  0
  1  7  1  0  0  0
  2  8  1  0  0  0
  2  9  1  0  0  0
  3 10  1  0  0  0
  3 11  1  0  0  0
  4 12  1  0  0  0
  4 13  1  0  0  0
 14 15  1  0  0  0
 15 16  1  0  0  0
 16 17  1  0  0  0
 17 18  1  0  0  0
 14 18  1  0  0  0
 14 19  1  0  0  0
 14 20  1  0  0  0
 15 21  1  0  0  0
 15 22  1  0  0  0
 16 23  1  0  0  0
 16 24  1  0  0  0
 17 25  1  0  0  0
 17 26  1  0  0  0
M  END
$$$$
