


 26 26  0  0  1  0            999 V2000
    2.7598    0.9377    6.1571 C   0  0  0  0  0  0
    3.7124    1.2036    4.9875 C   0  0  0  0  0  0
    3.1732    0.2489    3.8673 C   0  0  0  0  0  0
    2.5123   -0.8725    4.6668 C   0  0  0  0  0  0
    2.4586   -0.3752    6.0423 O   0  0  0  0  0  0
    1.8632    1.5517    5.9461 H   0  0  0  0  0  0
    3.1548    1.2468    7.1439 H   0  0  0  0  0  0
    3.8736    2.2630    4.7098 H   0  0  0  0  0  0
    4.7055    0.7462    5.1609 H   0  0  0  0  0  0
    3.8174   -0.1675    3.0691 H   0  0  0  0  0  0
    2.3605    0.8209    3.3798 H   0  0  0  0  0  0
    3.1915   -1.7361    4.8023 H   0  0  0  0  0  0
    1.4886   -1.2687    4.5234 H   0  0  0  0  0  0
   -4.3820    4.7801    0.2973 C   0  0  0  0  0  0
   -3.9488    5.0162    1.7932 C   0  0  0  0  0  0
   -2.4416    4.9948    1.7243 C   0  0  0  0  0  0
   -2.1587    4.6400    0.2822 C   0  0  0  0  0  0
   -3.3132    3.9375   -0.1668 O   0  0  0  0  0  0
   -4.4504    5.7082   -0.3022 H   0  0  0  0  0  0
   -5.3734    4.2883    0.2707 H   0  0  0  0  0  0
   -4.3312    6.0050    2.1117 H   0  0  0  0  0  0
   -4.3460    4.2592    2.4965 H   0  0  0  0  0  0
   -2.0635    4.1452    2.3249 H   0  0  0  0  0  0
   -1.9070    5.9056    2.0558 H   0  0  0  0  0  0
   -1.2740    3.9766    0.2315 H   0  0  0  0  0  0
   -1.9455    5.5331   -0.3362 H   0  0  0  0  0  0
  1  2  1  0  0  0
  2  3  1  0  0  0
  3  4  1  0  0  0
  4  5  1  0  0  0
  1  5  1  0  0  0
  1  6  1  0  0  0
  1  7  1  0  0  0
  2  8  1  0  0  0
  2  9  1  0  0  0
  3 10  1  0  0  0
  3 11  1  0  0  0
  4 12  1  0  0  0
  4 13  1  0  0  0
 14 15  1  0  0  0
 15 16  1  0  0  0
 16 17  1  0  0  0
 17 18  1  0  0  0
 14 18  1  0  0  0
 14 19  1  0  0  0
 14 20  1  0  0  0
 15 21  1  0  0  0
 15 22  1  0  0  0
 16 23  1  0  0  0
 16 24  1  0  0  0
 17 25  1  0  0  0
 17 26  1  0  0  0
M  END
$$$$
