


 26 26  0  0  1  0            999 V2000
   -4.6130  -10.4987  -10.6087 C   0  0  0  0  0  0
   -3.8333  -10.5131   -9.2566 C   0  0  0  0  0  0
   -3.6465  -12.0194   -9.0234 C   0  0  0  0  0  0
   -4.8698  -12.6386   -9.6791 C   0  0  0  0  0  0
   -5.4597  -11.6547  -10.4843 O   0  0  0  0  0  0
   -4.0953  -10.6676  -11.5725 H   0  0  0  0  0  0
   -5.2717   -9.6173  -10.7304 H   0  0  0  0  0  0
   -2.8627   -9.9824   -9.2149 H   0  0  0  0  0  0
   -4.4928  -10.0694   -8.4862 H   0  0  0  0  0  0
   -3.4834  -12.2657   -7.9565 H   0  0  0  0  0  0
   -2.7755  -12.3970   -9.5929 H   0  0  0  0  0  0
   -5.6787  -12.7213   -8.9279 H   0  0  0  0  0  0
   -4.7004  -13.6468  -10.1037 H   0  0  0  0  0  0
   -7.0085  -10.3169  -12.9398 C   0  0  0  0  0  0
   -6.8437   -8.7914  -12.6725 C   0  0  0  0  0  0
   -6.5634   -8.1804  -13.9883 C   0  0  0  0  0  0
   -6.5553   -9.3950  -14.9046 C   0  0  0  0  0  0
   -6.3091  -10.6094  -14.1348 O   0  0  0  0  0  0
   -8.0711  -10.4751  -13.2071 H   0  0  0  0  0  0
   -6.7481  -11.0468  -12.1493 H   0  0  0  0  0  0
   -7.7743   -8.4130  -12.2073 H   0  0  0  0  0  0
   -6.0041   -8.5445  -11.9945 H   0  0  0  0  0  0
   -5.5691   -7.6989  -13.9181 H   0  0  0  0  0  0
   -7.3079   -7.3869  -14.1921 H   0  0  0  0  0  0
   -5.7544   -9.3628  -15.6682 H   0  0  0  0  0  0
   -7.5240   -9.4667  -15.4357 H   0  0  0  0  0  0
  1  2  1  0  0  0
  2  3  1  0  0  0
  3  4  1  0  0  0
  4  5  1  0  0  0
  1  5  1  0  0  0
  1  6  1  0  0  0
  1  7  1  0  0  0
  2  8  1  0  0  0
  2  9  1  0  0  0
  3 10  1  0  0  0
  3 11  1  0  0  0
  4 12  1  0  0  0
  4 13  1  0  0  0
 14 15  1  0  0  0
 15 16  1  0  0  0
 16 17  1  0  0  0
 17 18  1  0  0  0
 14 18  1  0  0  0
 14 19  1  0  0  0
 14 20  1  0  0  0
 15 21  1  0  0  0
 15 22  1  0  0  0
 16 23  1  0  0  0
 16 24  1  0  0  0
 17 25  1  0  0  0
 17 26  1  0  0  0
M  END
$$$$
