


 26 26  0  0  1  0            999 V2000
    0.0000    0.0000    0.0000 C   0  0  0  0  0  0
    0.1242    0.2123   -1.5473 C   0  0  0  0  0  0
   -0.5074   -0.9980   -2.1502 C   0  0  0  0  0  0
   -1.1518   -1.7112   -0.9884 C   0  0  0  0  0  0
   -0.2501   -1.4099    0.0801 O   0  0  0  0  0  0
   -0.8179    0.5678    0.4839 H   0  0  0  0  0  0
    0.9414    0.2526    0.5248 H   0  0  0  0  0  0
   -0.3623    1.1699   -1.8150 H   0  0  0  0  0  0
    1.1670    0.2496   -1.9169 H   0  0  0  0  0  0
    0.2265   -1.5930   -2.7272 H   0  0  0  0  0  0
   -1.3443   -0.7454   -2.8293 H   0  0  0  0  0  0
   -1.2641   -2.8056   -1.1113 H   0  0  0  0  0  0
   -2.1622   -1.2836   -0.8410 H   0  0  0  0  0  0
   -4.5347   -1.3948    1.0515 C   0  0  0  0  0  0
   -3.8246   -0.8161    2.2362 C   0  0  0  0  0  0
   -3.5787   -2.0187    3.1502 C   0  0  0  0  0  0
   -3.8184   -3.2571    2.2260 C   0  0  0  0  0  0
   -4.2266   -2.7761    0.9710 O   0  0  0  0  0  0
   -4.2767   -0.7949    0.1577 H   0  0  0  0  0  0
   -5.5990   -1.2045    1.2889 H   0  0  0  0  0  0
   -2.8532   -0.4559    1.8463 H   0  0  0  0  0  0
   -4.3291    0.0394    2.7251 H   0  0  0  0  0  0
   -4.2350   -2.0370    4.0415 H   0  0  0  0  0  0
   -2.5323   -1.9473    3.5042 H   0  0  0  0  0  0
   -4.6316   -3.8442    2.6945 H   0  0  0  0  0  0
   -2.9258   -3.9088    2.1635 H   0  0  0  0  0  0
  1  2  1  0  0  0
  2  3  1  0  0  0
  3  4  1  0  0  0
  4  5  1  0  0  0
  1  5  1  0  0  0
  1  6  1  0  0  0
  1  7  1  0  0  0
  2  8  1  0  0  0
  2  9  1  0  0  0
  3 10  1  0  0  0
  3 11  1  0  0  0
  4 12  1  0  0  0
  4 13  1  0  0  0
 14 15  1  0  0  0
 15 16  1  0  0  0
 16 17  1  0  0  0
 17 18  1  0  0  0
 14 18  1  0  0  0
 14 19  1  0  0  0
 14 20  1  0  0  0
 15 21  1  0  0  0
 15 22  1  0  0  0
 16 23  1  0  0  0
 16 24  1  0  0  0
 17 25  1  0  0  0
 17 26  1  0  0  0
M  END
$$$$
