


 26 26  0  0  1  0            999 V2000
    1.6455    4.1438    0.9086 C   0  0  0  0  0  0
    2.5651    2.9353    0.8160 C   0  0  0  0  0  0
    2.2129    2.1505   -0.4389 C   0  0  0  0  0  0
    2.2375    3.0084   -1.5803 O   0  0  0  0  0  0
    1.3532    4.0813   -1.3895 C   0  0  0  0  0  0
    1.6995    4.8985   -0.3025 O   0  0  0  0  0  0
    1.9348    4.8347    1.7237 H   0  0  0  0  0  0
    0.6029    3.8217    1.0946 H   0  0  0  0  0  0
    3.6179    3.2729    0.7599 H   0  0  0  0  0  0
    2.4635    2.2983    1.7156 H   0  0  0  0  0  0
    1.2075    1.6978   -0.3412 H   0  0  0  0  0  0
    2.9315    1.3335   -0.6431 H   0  0  0  0  0  0
    0.3207    3.7023   -1.2637 H   0  0  0  0  0  0
    1.3737    4.7051   -2.3038 H   0  0  0  0  0  0
    0.0091    1.6495    3.6956 C   0  0  0  0  0  0
   -0.1878    0.7204    2.6734 C   0  0  0  0  0  0
    0.7356   -0.3071    2.4771 C   0  0  0  0  0  0
    1.8561   -0.4054    3.3029 C   0  0  0  0  0  0
    2.0530    0.5238    4.3251 C   0  0  0  0  0  0
    1.1295    1.5513    4.5215 C   0  0  0  0  0  0
   -0.7176    2.4581    3.8501 H   0  0  0  0  0  0
   -1.0695    0.7977    2.0236 H   0  0  0  0  0  0
    0.5807   -1.0383    1.6727 H   0  0  0  0  0  0
    2.5828   -1.2139    3.1484 H   0  0  0  0  0  0
    2.9347    0.4464    4.9750 H   0  0  0  0  0  0
    1.2845    2.2824    5.3258 H   0  0  0  0  0  0
  1  2  1  0  0  0
  2  3  1  0  0  0
  3  4  1  0  0  0
  4  5  1  0  0  0
  5  6  1  0  0  0
  1  6  1  0  0  0
  1  7  1  0  0  0
  1  8  1  0  0  0
  2  9  1  0  0  0
  2 10  1  0  0  0
  3 11  1  0  0  0
  3 12  1  0  0  0
  5 13  1  0  0  0
  5 14  1  0  0  0
 15 16  1  0  0  0
 16 17  2  0  0  0
 17 18  1  0  0  0
 18 19  2  0  0  0
 19 20  1  0  0  0
 15 20  2  0  0  0
 15 21  1  0  0  0
 16 22  1  0  0  0
 17 23  1  0  0  0
 18 24  1  0  0  0
 19 25  1  0  0  0
 20 26  1  0  0  0
M  END
$$$$
