


 26 26  0  0  1  0            999 V2000
    1.6455    4.1438    0.9086 C   0  0  0  0  0  0
    2.5651    2.9353    0.8160 C   0  0  0  0  0  0
    2.2129    2.1505   -0.4389 C   0  0  0  0  0  0
    2.2375    3.0084   -1.5803 O   0  0  0  0  0  0
    1.3532    4.0813   -1.3895 C   0  0  0  0  0  0
    1.6995    4.8985   -0.3025 O   0  0  0  0  0  0
    1.9348    4.8347    1.7237 H   0  0  0  0  0  0
    0.6029    3.8217    1.0946 H   0  0  0  0  0  0
    3.6179    3.2729    0.7599 H   0  0  0  0  0  0
    2.4635    2.2983    1.7156 H   0  0  0  0  0  0
    1.2075    1.6978   -0.3412 H   0  0  0  0  0  0
    2.9315    1.3335   -0.6431 H   0  0  0  0  0  0
    0.3207    3.7023   -1.2637 H   0  0  0  0  0  0
    1.3737    4.7051   -2.3038 H   0  0  0  0  0  0
    0.2621    2.3063    2.8502 C   0  0  0  0  0  0
    0.0652    1.3771    1.8280 C   0  0  0  0  0  0
    0.9887    0.3496    1.6316 C   0  0  0  0  0  0
    2.1091    0.2513    2.4575 C   0  0  0  0  0  0
    2.3061    1.1805    3.4797 C   0  0  0  0  0  0
    1.3826    2.2080    3.6760 C   0  0  0  0  0  0
   -0.4645    3.1147    3.0047 H   0  0  0  0  0  0
   -0.8165    1.4544    1.1782 H   0  0  0  0  0  0
    0.8337   -0.3816    0.8273 H   0  0  0  0  0  0
    2.8358   -0.5572    2.3030 H   0  0  0  0  0  0
    3.1877    1.1032    4.1295 H   0  0  0  0  0  0
    1.5376    2.9391    4.4804 H   0  0  0  0  0  0
  1  2  1  0  0  0
  2  3  1  0  0  0
  3  4  1  0  0  0
  4  5  1  0  0  0
  5  6  1  0  0  0
  1  6  1  0  0  0
  1  7  1  0  0  0
  1  8  1  0  0  0
  2  9  1  0  0  0
  2 10  1  0  0  0
  3 11  1  0  0  0
  3 12  1  0  0  0
  5 13  1  0  0  0
  5 14  1  0  0  0
 15 16  1  0  0  0
 16 17  2  0  0  0
 17 18  1  0  0  0
 18 19  2  0  0  0
 19 20  1  0  0  0
 15 20  2  0  0  0
 15 21  1  0  0  0
 16 22  1  0  0  0
 17 23  1  0  0  0
 18 24  1  0  0  0
 19 25  1  0  0  0
 20 26  1  0  0  0
M  END
$$$$
