


 20 20  0  0  1  0            999 V2000
    2.6575    2.9498    3.9313 C   0  0  0  0  0  0
    2.6034    4.2550    3.4495 C   0  0  0  0  0  0
    2.1101    4.4638    2.1643 C   0  0  0  0  0  0
    1.6936    3.3617    1.4191 C   0  0  0  0  0  0
    1.7395    2.0984    1.8693 N   0  0  0  0  0  0
    2.2172    1.9133    3.1094 C   0  0  0  0  0  0
    3.0377    2.7299    4.9376 H   0  0  0  0  0  0
    2.9410    5.0977    4.0670 H   0  0  0  0  0  0
    2.0460    5.4729    1.7363 H   0  0  0  0  0  0
    1.3001    3.4949    0.4027 H   0  0  0  0  0  0
    2.2476    0.8737    3.4617 H   0  0  0  0  0  0
   -0.6926   -1.1742   -0.1845 C   0  0  0  0  0  0
   -0.7990   -2.1919   -1.0241 N   0  0  0  0  0  0
    0.4588   -2.3545   -1.5536 C   0  0  0  0  0  0
    1.3329   -1.4269   -1.0293 C   0  0  0  0  0  0
    0.5787   -0.6823   -0.1570 N   0  0  0  0  0  0
    0.9105    0.1007    0.4115 H   0  0  0  0  0  0
   -1.4956   -0.7564    0.4227 H   0  0  0  0  0  0
    0.6724   -3.1323   -2.2868 H   0  0  0  0  0  0
    2.3932   -1.2349   -1.1935 H   0  0  0  0  0  0
  1  2  1  0  0  0
  2  3  2  0  0  0
  3  4  1  0  0  0
  4  5  2  0  0  0
  5  6  1  0  0  0
  1  6  2  0  0  0
  1  7  1  0  0  0
  2  8  1  0  0  0
  3  9  1  0  0  0
  4 10  1  0  0  0
  6 11  1  0  0  0
 12 13  2  0  0  0
 13 14  1  0  0  0
 14 15  2  0  0  0
 15 16  1  0  0  0
 16 17  1  0  0  0
 12 16  1  0  0  0
 12 18  1  0  0  0
 14 19  1  0  0  0
 15 20  1  0  0  0
M  END
$$$$
