


 18 17  0  0  1  0            999 V2000
    0.0000    0.0000    0.0000 C   0  0  0  0  0  0
   -0.8237    0.2562   -1.3064 C   0  0  0  0  0  0
   -2.0266   -0.5906   -1.5548 C   0  0  0  0  0  0
   -3.3803   -0.2708   -1.3395 C   0  0  0  0  0  0
   -4.1315   -1.4416   -1.6166 N   0  0  0  0  0  0
   -3.2471   -2.3679   -1.9416 C   0  0  0  0  0  0
   -1.9745   -1.9522   -1.7689 N   0  0  0  0  0  0
   -1.1785   -2.5640   -1.9656 H   0  0  0  0  0  0
    0.9871    0.4875   -0.0682 H   0  0  0  0  0  0
    0.1510   -1.0882    0.0983 H   0  0  0  0  0  0
   -0.5119    0.3673    0.9053 H   0  0  0  0  0  0
   -1.1996    1.2973   -1.2916 H   0  0  0  0  0  0
   -0.1604    0.1503   -2.1863 H   0  0  0  0  0  0
   -3.8161    0.6496   -0.9507 H   0  0  0  0  0  0
   -3.6031   -3.3602   -2.2186 H   0  0  0  0  0  0
   -4.8092   -4.9303   -4.2124 O   0  0  0  0  0  0
   -5.6653   -4.5231   -3.9489 H   0  0  0  0  0  0
   -5.0627   -5.7320   -4.7235 H   0  0  0  0  0  0
  1  2  1  0  0  0
  2  3  1  0  0  0
  3  4  2  0  0  0
  4  5  1  0  0  0
  5  6  2  0  0  0
  6  7  1  0  0  0
  7  8  1  0  0  0
  3  7  1  0  0  0
  1  9  1  0  0  0
  1 10  1  0  0  0
  1 11  1  0  0  0
  2 12  1  0  0  0
  2 13  1  0  0  0
  4 14  1  0  0  0
  6 15  1  0  0  0
 16 17  1  0  0  0
 16 18  1  0  0  0
M  END
$$$$
