


 14 12  0  0  1  0            999 V2000
    3.0648    0.6872   -1.9337 C   0  0  0  0  0  0
    2.5134    2.5125   -1.9587 Br  0  0  0  0  0  0
    4.0719    0.5851   -2.3719 H   0  0  0  0  0  0
    2.3631    0.0669   -2.5163 H   0  0  0  0  0  0
    3.0919    0.3092   -0.8978 H   0  0  0  0  0  0
   -1.0727    2.2069    2.7855 C   0  0  0  0  0  0
   -0.2462    0.9336    2.6724 C   0  0  0  0  0  0
    1.3682    1.0375    3.5052 S   0  0  0  0  0  0
   -1.2360    2.4663    3.8451 H   0  0  0  0  0  0
   -2.0542    2.0677    2.3020 H   0  0  0  0  0  0
   -0.5541    3.0470    2.2936 H   0  0  0  0  0  0
   -0.7563    0.0900    3.1758 H   0  0  0  0  0  0
   -0.0898    0.6491    1.6140 H   0  0  0  0  0  0
    1.8529    2.0557    2.7629 H   0  0  0  0  0  0
  1  2  1  0  0  0
  1  3  1  0  0  0
  1  4  1  0  0  0
  1  5  1  0  0  0
  6  7  1  0  0  0
  7  8  1  0  0  0
  6  9  1  0  0  0
  6 10  1  0  0  0
  6 11  1  0  0  0
  7 12  1  0  0  0
  7 13  1  0  0  0
  8 14  1  0  0  0
M  END
$$$$
