


 17 15  0  0  1  0            999 V2000
    2.3382   -0.0348    0.4745 C   0  0  0  0  0  0
    1.1000    0.1944    0.0342 C   0  0  0  0  0  0
    2.5322   -0.7692    1.2646 H   0  0  0  0  0  0
    3.1968    0.5048    0.0587 H   0  0  0  0  0  0
    0.2415   -0.3452    0.4501 H   0  0  0  0  0  0
    0.9061    0.9287   -0.7559 H   0  0  0  0  0  0
    2.1305    3.6867    0.5334 C   0  0  0  0  0  0
    0.9878    3.2786    1.4580 C   0  0  0  0  0  0
    1.3543    2.0453    2.2177 N   0  0  0  0  0  0
    2.2051    2.2125    2.7919 H   0  0  0  0  0  0
    0.5836    1.7550    2.8528 H   0  0  0  0  0  0
    1.5509    1.2613    1.5632 H   0  0  0  0  0  0
    3.0474    3.9022    1.1076 H   0  0  0  0  0  0
    1.8369    4.5974   -0.0153 H   0  0  0  0  0  0
    2.3522    2.8914   -0.1979 H   0  0  0  0  0  0
    0.7556    4.0729    2.1933 H   0  0  0  0  0  0
    0.0618    3.0642    0.8905 H   0  0  0  0  0  0
  1  2  2  0  0  0
  1  3  1  0  0  0
  1  4  1  0  0  0
  2  5  1  0  0  0
  2  6  1  0  0  0
  7  8  1  0  0  0
  8  9  1  0  0  0
  9 10  1  0  0  0
  9 11  1  0  0  0
  9 12  1  0  0  0
  7 13  1  0  0  0
  7 14  1  0  0  0
  7 15  1  0  0  0
  8 16  1  0  0  0
  8 17  1  0  0  0
M  CHG  1   9   1
M  END
$$$$
