


  8  6  0  0  1  0            999 V2000
    0.0000    0.0000    0.0000 Br  0  0  0  0  0  0
   -1.2420   -0.8306    1.2553 C   0  0  0  0  0  0
   -2.6646   -1.8779    0.3688 Br  0  0  0  0  0  0
   -0.1797   -2.0836    2.4350 Br  0  0  0  0  0  0
   -1.6209   -0.0063    1.8932 H   0  0  0  0  0  0
   -1.5710   -5.5394    1.1064 O   0  0  0  0  0  0
   -1.6035   -5.0322    1.9490 H   0  0  0  0  0  0
   -1.6176   -6.4826    1.3828 H   0  0  0  0  0  0
  1  2  1  0  0  0
  2  3  1  0  0  0
  2  4  1  0  0  0
  2  5  1  0  0  0
  6  7  1  0  0  0
  6  8  1  0  0  0
M  END
$$$$
