


  8  6  0  0  1  0            999 V2000
    0.0000    0.0000    0.0000 Br  0  0  0  0  0  0
   -1.1989   -0.1929   -1.4963 C   0  0  0  0  0  0
   -0.3068    0.0465   -3.2736 Br  0  0  0  0  0  0
   -2.1630   -1.9923   -1.3978 Br  0  0  0  0  0  0
   -1.9130    0.6539   -1.4431 H   0  0  0  0  0  0
   -4.5311    2.0733   -4.0005 O   0  0  0  0  0  0
   -3.8620    1.4873   -4.4214 H   0  0  0  0  0  0
   -4.8863    2.6159   -4.7406 H   0  0  0  0  0  0
  1  2  1  0  0  0
  2  3  1  0  0  0
  2  4  1  0  0  0
  2  5  1  0  0  0
  6  7  1  0  0  0
  6  8  1  0  0  0
M  END
$$$$
