


 18 17  0  0  1  0            999 V2000
    3.3214    2.1911    1.9039 C   0  0  0  0  0  0
    2.2651    2.9401    1.5833 C   0  0  0  0  0  0
    3.2281    1.1074    2.0386 H   0  0  0  0  0  0
    4.3126    2.6382    2.0417 H   0  0  0  0  0  0
    1.2739    2.4930    1.4455 H   0  0  0  0  0  0
    2.3584    4.0238    1.4486 H   0  0  0  0  0  0
   -0.3401    0.9687    2.7715 C   0  0  0  0  0  0
    0.6655    0.0830    2.3825 C   0  0  0  0  0  0
    0.9405   -0.1091    1.0280 C   0  0  0  0  0  0
    0.2098    0.5846    0.0626 C   0  0  0  0  0  0
   -0.7958    1.4703    0.4516 C   0  0  0  0  0  0
   -1.0708    1.6624    1.8061 C   0  0  0  0  0  0
   -0.5565    1.1199    3.8373 H   0  0  0  0  0  0
    1.2405   -0.4628    3.1422 H   0  0  0  0  0  0
    1.7318   -0.8060    0.7219 H   0  0  0  0  0  0
    0.4262    0.4334   -1.0032 H   0  0  0  0  0  0
   -1.3708    2.0161   -0.3081 H   0  0  0  0  0  0
   -1.8621    2.3593    2.1122 H   0  0  0  0  0  0
  1  2  2  0  0  0
  1  3  1  0  0  0
  1  4  1  0  0  0
  2  5  1  0  0  0
  2  6  1  0  0  0
  7  8  1  0  0  0
  8  9  2  0  0  0
  9 10  1  0  0  0
 10 11  2  0  0  0
 11 12  1  0  0  0
  7 12  2  0  0  0
  7 13  1  0  0  0
  8 14  1  0  0  0
  9 15  1  0  0  0
 10 16  1  0  0  0
 11 17  1  0  0  0
 12 18  1  0  0  0
M  END
$$$$
