


 22 20  0  0  1  0            999 V2000
    1.2741    5.2106   -0.6781 C   0  0  0  0  0  0
   -0.1331    5.2843   -1.2497 C   0  0  0  0  0  0
   -1.1033    4.8543   -0.2349 N   0  0  0  0  0  0
    1.3473    5.8388    0.2256 H   0  0  0  0  0  0
    2.0134    5.5668   -1.4150 H   0  0  0  0  0  0
    1.5223    4.1712   -0.4050 H   0  0  0  0  0  0
   -0.3716    6.3336   -1.5095 H   0  0  0  0  0  0
   -0.1812    4.6877   -2.1810 H   0  0  0  0  0  0
   -2.0566    4.8980   -0.6117 H   0  0  0  0  0  0
   -0.9369    3.8707    0.0048 H   0  0  0  0  0  0
    1.2164   -0.9841    0.5880 C   0  0  0  0  0  0
    0.6070   -0.1690    1.5651 O   0  0  0  0  0  0
    1.4320   -0.0353    2.7116 C   0  0  0  0  0  0
    0.7191    0.8470    3.7125 C   0  0  0  0  0  0
    0.5297   -1.0485   -0.2728 H   0  0  0  0  0  0
    1.4015   -2.0031    0.9675 H   0  0  0  0  0  0
    2.1735   -0.5577    0.2433 H   0  0  0  0  0  0
    1.6334   -1.0347    3.1428 H   0  0  0  0  0  0
    2.4038    0.4076    2.4202 H   0  0  0  0  0  0
    0.5266    1.8423    3.2780 H   0  0  0  0  0  0
   -0.2454    0.3970    4.0021 H   0  0  0  0  0  0
    1.3352    0.9719    4.6188 H   0  0  0  0  0  0
  1  2  1  0  0  0
  2  3  1  0  0  0
  1  4  1  0  0  0
  1  5  1  0  0  0
  1  6  1  0  0  0
  2  7  1  0  0  0
  2  8  1  0  0  0
  3  9  1  0  0  0
  3 10  1  0  0  0
 11 12  1  0  0  0
 12 13  1  0  0  0
 13 14  1  0  0  0
 11 15  1  0  0  0
 11 16  1  0  0  0
 11 17  1  0  0  0
 13 18  1  0  0  0
 13 19  1  0  0  0
 14 20  1  0  0  0
 14 21  1  0  0  0
 14 22  1  0  0  0
M  END
$$$$
