


 21 20  0  0  1  0            999 V2000
    5.1412    2.5406    2.3749 Br  0  0  0  0  0  0
    3.8881    2.1976    1.0080 C   0  0  0  0  0  0
    3.1276    3.2497    0.5001 C   0  0  0  0  0  0
    2.2027    2.9873   -0.5110 C   0  0  0  0  0  0
    2.0426    1.6926   -1.0049 C   0  0  0  0  0  0
    2.8126    0.6524   -0.4843 C   0  0  0  0  0  0
    3.7420    0.8975    0.5270 C   0  0  0  0  0  0
    3.2602    4.2657    0.8948 H   0  0  0  0  0  0
    1.6000    3.8108   -0.9161 H   0  0  0  0  0  0
    1.3130    1.4929   -1.8008 H   0  0  0  0  0  0
    2.6919   -0.3692   -0.8683 H   0  0  0  0  0  0
    4.3523    0.0848    0.9426 H   0  0  0  0  0  0
    0.6349    2.7235    4.0787 C   0  0  0  0  0  0
    0.5499    1.3252    3.4833 C   0  0  0  0  0  0
    1.5114    0.0834    4.4019 S   0  0  0  0  0  0
    0.2943    2.7160    5.1278 H   0  0  0  0  0  0
   -0.0015    3.4199    3.5072 H   0  0  0  0  0  0
    1.6742    3.0917    4.0488 H   0  0  0  0  0  0
   -0.4893    0.9457    3.5226 H   0  0  0  0  0  0
    0.8703    1.3197    2.4237 H   0  0  0  0  0  0
    2.7158    0.6666    4.2237 H   0  0  0  0  0  0
  1  2  1  0  0  0
  2  3  1  0  0  0
  3  4  2  0  0  0
  4  5  1  0  0  0
  5  6  2  0  0  0
  6  7  1  0  0  0
  2  7  2  0  0  0
  3  8  1  0  0  0
  4  9  1  0  0  0
  5 10  1  0  0  0
  6 11  1  0  0  0
  7 12  1  0  0  0
 13 14  1  0  0  0
 14 15  1  0  0  0
 13 16  1  0  0  0
 13 17  1  0  0  0
 13 18  1  0  0  0
 14 19  1  0  0  0
 14 20  1  0  0  0
 15 21  1  0  0  0
M  END
$$$$
