


 19 17  0  0  1  0            999 V2000
   -0.7007    5.3678   -0.7170 O   0  0  0  0  0  0
   -1.6837    5.4120   -0.7151 H   0  0  0  0  0  0
   -0.4605    5.2274   -1.6608 H   0  0  0  0  0  0
    0.0000    0.0000    0.0000 O   0  0  0  0  0  0
   -1.1449   -0.4787    0.6991 C   0  0  0  0  0  0
   -0.7375   -1.8099    1.3148 C   0  0  0  0  0  0
   -0.9608   -2.9016    0.2244 C   0  0  0  0  0  0
   -1.1242   -4.3436    0.8202 C   0  0  0  0  0  0
    0.0577   -4.7086    1.4602 O   0  0  0  0  0  0
   -0.3097    0.7951   -0.4819 H   0  0  0  0  0  0
   -1.9813   -0.6058   -0.0149 H   0  0  0  0  0  0
   -1.4606    0.2617    1.4590 H   0  0  0  0  0  0
   -1.5064   -2.0576    2.0717 H   0  0  0  0  0  0
    0.2461   -1.8065    1.8228 H   0  0  0  0  0  0
   -1.9190   -2.7442   -0.3071 H   0  0  0  0  0  0
   -0.1598   -2.9643   -0.5372 H   0  0  0  0  0  0
   -1.3574   -5.1291    0.0758 H   0  0  0  0  0  0
   -1.9555   -4.3148    1.5507 H   0  0  0  0  0  0
    0.2592   -4.0450    2.1526 H   0  0  0  0  0  0
  1  2  1  0  0  0
  1  3  1  0  0  0
  4  5  1  0  0  0
  5  6  1  0  0  0
  6  7  1  0  0  0
  7  8  1  0  0  0
  8  9  1  0  0  0
  4 10  1  0  0  0
  5 11  1  0  0  0
  5 12  1  0  0  0
  6 13  1  0  0  0
  6 14  1  0  0  0
  7 15  1  0  0  0
  7 16  1  0  0  0
  8 17  1  0  0  0
  8 18  1  0  0  0
  9 19  1  0  0  0
M  END
$$$$
