


 14 12  0  0  1  0            999 V2000
   -0.0351   -0.1625    3.3929 C   0  0  0  0  0  0
    1.2846   -0.3245    3.2850 C   0  0  0  0  0  0
   -0.7047   -1.0229    3.5046 H   0  0  0  0  0  0
   -0.4873    0.8357    3.3729 H   0  0  0  0  0  0
    1.7368   -1.3227    3.3050 H   0  0  0  0  0  0
    1.9542    0.5359    3.1732 H   0  0  0  0  0  0
    0.6477    3.0974   -1.3982 C   0  0  0  0  0  0
    0.6730    2.4148   -0.0634 C   0  0  0  0  0  0
    0.8266    2.9497    1.0120 O   0  0  0  0  0  0
    0.4975    1.0736   -0.1955 O   0  0  0  0  0  0
    0.7912    4.1839   -1.2738 H   0  0  0  0  0  0
   -0.3198    2.9255   -1.8992 H   0  0  0  0  0  0
    1.4524    2.7079   -2.0442 H   0  0  0  0  0  0
    0.5288    0.7113    0.7317 H   0  0  0  0  0  0
  1  2  2  0  0  0
  1  3  1  0  0  0
  1  4  1  0  0  0
  2  5  1  0  0  0
  2  6  1  0  0  0
  7  8  1  0  0  0
  8  9  2  0  0  0
  8 10  1  0  0  0
  7 11  1  0  0  0
  7 12  1  0  0  0
  7 13  1  0  0  0
 10 14  1  0  0  0
M  END
$$$$
