


 19 17  0  0  1  0            999 V2000
    2.8840    3.2793    0.8144 C   0  0  0  0  0  0
    4.0815    2.3430    0.8557 C   0  0  0  0  0  0
    4.0501    1.5526    2.0928 N   0  0  0  0  0  0
    1.9488    2.6986    0.8852 H   0  0  0  0  0  0
    2.8707    3.8540   -0.1270 H   0  0  0  0  0  0
    2.9229    3.9879    1.6587 H   0  0  0  0  0  0
    4.0237    1.6319    0.0092 H   0  0  0  0  0  0
    5.0109    2.9325    0.7371 H   0  0  0  0  0  0
    4.8560    0.9189    2.1316 H   0  0  0  0  0  0
    4.1399    2.1771    2.9019 H   0  0  0  0  0  0
   -0.8486   -0.0257    0.4038 C   0  0  0  0  0  0
    0.2169   -0.4103   -0.6130 C   0  0  0  0  0  0
    1.5278   -1.4700    0.0720 S   0  0  0  0  0  0
   -1.3118   -0.9288    0.8355 H   0  0  0  0  0  0
   -1.6360    0.5769   -0.0795 H   0  0  0  0  0  0
   -0.4041    0.5668    1.2211 H   0  0  0  0  0  0
   -0.2216   -1.0162   -1.4291 H   0  0  0  0  0  0
    0.6782    0.4863   -1.0700 H   0  0  0  0  0  0
    1.9653   -0.5871    0.9948 H   0  0  0  0  0  0
  1  2  1  0  0  0
  2  3  1  0  0  0
  1  4  1  0  0  0
  1  5  1  0  0  0
  1  6  1  0  0  0
  2  7  1  0  0  0
  2  8  1  0  0  0
  3  9  1  0  0  0
  3 10  1  0  0  0
 11 12  1  0  0  0
 12 13  1  0  0  0
 11 14  1  0  0  0
 11 15  1  0  0  0
 11 16  1  0  0  0
 12 17  1  0  0  0
 12 18  1  0  0  0
 13 19  1  0  0  0
M  END
$$$$
