


 15 13  0  0  1  0            999 V2000
   -0.9311    1.7675    2.3204 C   0  0  0  0  0  0
    0.0090    1.7867    3.5155 C   0  0  0  0  0  0
    0.7597    0.5261    3.5757 N   0  0  0  0  0  0
   -0.3573    1.6079    1.3920 H   0  0  0  0  0  0
   -1.4758    2.7230    2.2375 H   0  0  0  0  0  0
   -1.6659    0.9515    2.4245 H   0  0  0  0  0  0
    0.7462    2.6033    3.3924 H   0  0  0  0  0  0
   -0.5721    1.9937    4.4347 H   0  0  0  0  0  0
    1.3957    0.5279    4.3808 H   0  0  0  0  0  0
    0.1104   -0.2536    3.7277 H   0  0  0  0  0  0
    2.3379    3.0760    0.1790 F   0  0  0  0  0  0
    3.1316    2.3157    0.9723 C   0  0  0  0  0  0
    3.6276    3.0920    1.9666 F   0  0  0  0  0  0
    2.5496    1.4765    1.3996 H   0  0  0  0  0  0
    3.9597    1.8831    0.3787 H   0  0  0  0  0  0
  1  2  1  0  0  0
  2  3  1  0  0  0
  1  4  1  0  0  0
  1  5  1  0  0  0
  1  6  1  0  0  0
  2  7  1  0  0  0
  2  8  1  0  0  0
  3  9  1  0  0  0
  3 10  1  0  0  0
 11 12  1  0  0  0
 12 13  1  0  0  0
 12 14  1  0  0  0
 12 15  1  0  0  0
M  END
$$$$
