


 21 19  0  0  1  0            999 V2000
    0.0000    0.0000    0.0000 C   0  0  0  0  0  0
   -0.7172    1.3733   -0.2595 C   0  0  0  0  0  0
   -1.5710    1.1269   -1.5159 C   0  0  0  0  0  0
   -1.7201    1.8468   -2.6378 C   0  0  0  0  0  0
   -2.7847    1.3742   -3.6100 C   0  0  0  0  0  0
   -0.9304    3.0618   -3.0012 C   0  0  0  0  0  0
    0.7707    0.2300    0.7548 H   0  0  0  0  0  0
    0.4923   -0.4439   -0.8816 H   0  0  0  0  0  0
   -0.6975   -0.7417    0.4242 H   0  0  0  0  0  0
   -1.4059    1.6979    0.5441 H   0  0  0  0  0  0
    0.0656    2.1488   -0.3654 H   0  0  0  0  0  0
   -2.2481    0.2704   -1.3988 H   0  0  0  0  0  0
   -2.2670    0.9663   -4.4944 H   0  0  0  0  0  0
   -3.4710    2.1718   -3.9408 H   0  0  0  0  0  0
   -3.3788    0.5684   -3.1473 H   0  0  0  0  0  0
   -1.1590    3.9686   -2.4163 H   0  0  0  0  0  0
   -1.1397    3.2669   -4.0645 H   0  0  0  0  0  0
    0.1432    2.8338   -2.8916 H   0  0  0  0  0  0
   -2.7718   -1.1886    0.2443 O   0  0  0  0  0  0
   -2.6395   -0.6403    1.0506 H   0  0  0  0  0  0
   -1.9067   -1.1547   -0.2234 H   0  0  0  0  0  0
  1  2  1  0  0  0
  2  3  1  0  0  0
  3  4  2  0  0  0
  4  5  1  0  0  0
  4  6  1  0  0  0
  1  7  1  0  0  0
  1  8  1  0  0  0
  1  9  1  0  0  0
  2 10  1  0  0  0
  2 11  1  0  0  0
  3 12  1  0  0  0
  5 13  1  0  0  0
  5 14  1  0  0  0
  5 15  1  0  0  0
  6 16  1  0  0  0
  6 17  1  0  0  0
  6 18  1  0  0  0
 19 20  1  0  0  0
 19 21  1  0  0  0
M  END
$$$$
