


 10  8  0  0  1  0            999 V2000
    2.5144   -0.6815   -1.2190 C   0  0  0  0  0  0
    3.5762    0.3328   -0.8178 C   0  0  0  0  0  0
    4.9426   -0.3861    0.1449 S   0  0  0  0  0  0
    2.9667   -1.5012   -1.8023 H   0  0  0  0  0  0
    1.7390   -0.1970   -1.8358 H   0  0  0  0  0  0
    2.0344   -1.1104   -0.3233 H   0  0  0  0  0  0
    4.0702    0.7570   -1.7131 H   0  0  0  0  0  0
    3.1343    1.1725   -0.2476 H   0  0  0  0  0  0
    4.1880   -0.8068    1.1822 H   0  0  0  0  0  0
    1.2398    0.6971    3.0723 Kr  0  0  0  0  0  0
  1  2  1  0  0  0
  2  3  1  0  0  0
  1  4  1  0  0  0
  1  5  1  0  0  0
  1  6  1  0  0  0
  2  7  1  0  0  0
  2  8  1  0  0  0
  3  9  1  0  0  0
M  END
$$$$
