


  7  5  0  0  1  0            999 V2000
    3.7043    2.6052    2.1741 C   0  0  0  0  0  0
    2.4794    2.4652    2.6836 C   0  0  0  0  0  0
    3.9386    2.2636    1.1594 H   0  0  0  0  0  0
    4.5110    3.0657    2.7557 H   0  0  0  0  0  0
    1.6726    2.0047    2.1020 H   0  0  0  0  0  0
    2.2450    2.8068    3.6983 H   0  0  0  0  0  0
   -0.1860    0.9232    0.7106 Cl  0  0  0  0  0  0
  1  2  2  0  0  0
  1  3  1  0  0  0
  1  4  1  0  0  0
  2  5  1  0  0  0
  2  6  1  0  0  0
M  CHG  1   7  -1
M  END
$$$$
