


 28 28  0  0  1  0            999 V2000
   -4.3530   -1.7617   -2.7393 C   0  0  0  0  0  0
   -3.8989   -2.8147   -1.7069 C   0  0  0  0  0  0
   -3.5796   -3.9525   -2.5703 C   0  0  0  0  0  0
   -3.7874   -3.4479   -3.9828 C   0  0  0  0  0  0
   -3.5680   -2.0613   -3.9108 N   0  0  0  0  0  0
   -4.2377   -0.7012   -2.4434 H   0  0  0  0  0  0
   -5.4213   -1.9312   -2.9748 H   0  0  0  0  0  0
   -2.9589   -2.4813   -1.2268 H   0  0  0  0  0  0
   -4.6684   -2.9019   -0.9159 H   0  0  0  0  0  0
   -4.2578   -4.7815   -2.2902 H   0  0  0  0  0  0
   -2.5431   -4.2803   -2.3612 H   0  0  0  0  0  0
   -4.7898   -3.6289   -4.4163 H   0  0  0  0  0  0
   -3.0364   -3.8329   -4.6992 H   0  0  0  0  0  0
   -3.9723   -1.4857   -4.6605 H   0  0  0  0  0  0
   -2.2365    1.3751    4.3426 C   0  0  0  0  0  0
   -1.0886    2.1356    4.9401 C   0  0  0  0  0  0
    0.1361    1.4097    4.6241 C   0  0  0  0  0  0
   -0.3082   -0.0622    4.5861 C   0  0  0  0  0  0
   -1.7146    0.0072    4.1842 N   0  0  0  0  0  0
   -2.4372    1.7247    3.3117 H   0  0  0  0  0  0
   -3.1892    1.4195    4.9046 H   0  0  0  0  0  0
   -1.0275    3.1748    4.5634 H   0  0  0  0  0  0
   -1.1618    2.1815    6.0437 H   0  0  0  0  0  0
    0.8256    1.6033    5.4682 H   0  0  0  0  0  0
    0.6326    1.7569    3.6976 H   0  0  0  0  0  0
   -0.3082   -0.4598    5.6192 H   0  0  0  0  0  0
    0.3123   -0.7371    3.9657 H   0  0  0  0  0  0
   -2.2218   -0.6267    4.8148 H   0  0  0  0  0  0
  1  2  1  0  0  0
  2  3  1  0  0  0
  3  4  1  0  0  0
  4  5  1  0  0  0
  1  5  1  0  0  0
  1  6  1  0  0  0
  1  7  1  0  0  0
  2  8  1  0  0  0
  2  9  1  0  0  0
  3 10  1  0  0  0
  3 11  1  0  0  0
  4 12  1  0  0  0
  4 13  1  0  0  0
  5 14  1  0  0  0
 15 16  1  0  0  0
 16 17  1  0  0  0
 17 18  1  0  0  0
 18 19  1  0  0  0
 15 19  1  0  0  0
 15 20  1  0  0  0
 15 21  1  0  0  0
 16 22  1  0  0  0
 16 23  1  0  0  0
 17 24  1  0  0  0
 17 25  1  0  0  0
 18 26  1  0  0  0
 18 27  1  0  0  0
 19 28  1  0  0  0
M  END
$$$$
