


 28 28  0  0  1  0            999 V2000
    0.0000    0.0000    0.0000 C   0  0  0  0  0  0
    1.3034    0.7331    0.1850 C   0  0  0  0  0  0
    1.5147    0.7217    1.6538 C   0  0  0  0  0  0
    0.6129   -0.3767    2.1396 C   0  0  0  0  0  0
    0.0585   -1.0603    0.9488 N   0  0  0  0  0  0
   -0.0809   -0.3273   -1.0544 H   0  0  0  0  0  0
   -0.8633    0.6586    0.2151 H   0  0  0  0  0  0
    2.1408    0.1306   -0.2164 H   0  0  0  0  0  0
    1.3173    1.7134   -0.3291 H   0  0  0  0  0  0
    1.3561    1.7248    2.0942 H   0  0  0  0  0  0
    2.5236    0.3783    1.9532 H   0  0  0  0  0  0
   -0.1617    0.0377    2.8132 H   0  0  0  0  0  0
    1.2416   -1.0671    2.7342 H   0  0  0  0  0  0
    0.8172   -1.6949    0.6689 H   0  0  0  0  0  0
   -3.3810    1.4717    2.1045 C   0  0  0  0  0  0
   -3.1101    2.0611    3.4234 C   0  0  0  0  0  0
   -2.9816    3.5441    3.1369 C   0  0  0  0  0  0
   -2.7378    3.6486    1.6586 C   0  0  0  0  0  0
   -3.3485    2.4664    1.0312 N   0  0  0  0  0  0
   -4.3664    0.9675    2.0863 H   0  0  0  0  0  0
   -2.6194    0.7337    1.7874 H   0  0  0  0  0  0
   -3.8909    1.7994    4.1632 H   0  0  0  0  0  0
   -2.1896    1.5102    3.6965 H   0  0  0  0  0  0
   -2.1574    3.9746    3.7375 H   0  0  0  0  0  0
   -3.9152    4.0649    3.4244 H   0  0  0  0  0  0
   -1.6410    3.5227    1.5774 H   0  0  0  0  0  0
   -2.9958    4.6363    1.2303 H   0  0  0  0  0  0
   -2.8142    1.9821    0.2986 H   0  0  0  0  0  0
  1  2  1  0  0  0
  2  3  1  0  0  0
  3  4  1  0  0  0
  4  5  1  0  0  0
  1  5  1  0  0  0
  1  6  1  0  0  0
  1  7  1  0  0  0
  2  8  1  0  0  0
  2  9  1  0  0  0
  3 10  1  0  0  0
  3 11  1  0  0  0
  4 12  1  0  0  0
  4 13  1  0  0  0
  5 14  1  0  0  0
 15 16  1  0  0  0
 16 17  1  0  0  0
 17 18  1  0  0  0
 18 19  1  0  0  0
 15 19  1  0  0  0
 15 20  1  0  0  0
 15 21  1  0  0  0
 16 22  1  0  0  0
 16 23  1  0  0  0
 17 24  1  0  0  0
 17 25  1  0  0  0
 18 26  1  0  0  0
 18 27  1  0  0  0
 19 28  1  0  0  0
M  END
$$$$
