


 28 28  0  0  1  0            999 V2000
    0.0000    0.0000    0.0000 C   0  0  0  0  0  0
    0.3667   -1.4424   -0.3181 C   0  0  0  0  0  0
    1.1280   -1.8860    0.8504 C   0  0  0  0  0  0
    0.5501   -1.1116    2.0159 C   0  0  0  0  0  0
    0.3378    0.2511    1.4148 N   0  0  0  0  0  0
   -1.0869    0.1027   -0.1830 H   0  0  0  0  0  0
    0.5241    0.6878   -0.6911 H   0  0  0  0  0  0
   -0.5739   -2.0143   -0.4344 H   0  0  0  0  0  0
    0.9479   -1.5568   -1.2533 H   0  0  0  0  0  0
    2.2261   -1.8879    0.7105 H   0  0  0  0  0  0
    0.8179   -2.9206    1.0930 H   0  0  0  0  0  0
    1.2191   -1.1115    2.8978 H   0  0  0  0  0  0
   -0.4455   -1.4631    2.3487 H   0  0  0  0  0  0
   -0.3253    0.8061    1.9708 H   0  0  0  0  0  0
    2.7805    2.4888    4.7270 C   0  0  0  0  0  0
    2.3509    1.0595    4.6997 C   0  0  0  0  0  0
    1.4017    0.9303    5.8038 C   0  0  0  0  0  0
    1.8017    2.0760    6.7711 C   0  0  0  0  0  0
    2.6594    3.0488    6.0669 N   0  0  0  0  0  0
    2.0006    3.0863    4.2169 H   0  0  0  0  0  0
    3.7277    2.6271    4.1711 H   0  0  0  0  0  0
    1.8924    0.8339    3.7176 H   0  0  0  0  0  0
    3.2489    0.4212    4.8065 H   0  0  0  0  0  0
    1.4172   -0.0983    6.2127 H   0  0  0  0  0  0
    0.3609    1.1569    5.5022 H   0  0  0  0  0  0
    2.2264    1.7702    7.7466 H   0  0  0  0  0  0
    0.8907    2.6719    6.9725 H   0  0  0  0  0  0
    2.1457    3.9348    6.1563 H   0  0  0  0  0  0
  1  2  1  0  0  0
  2  3  1  0  0  0
  3  4  1  0  0  0
  4  5  1  0  0  0
  1  5  1  0  0  0
  1  6  1  0  0  0
  1  7  1  0  0  0
  2  8  1  0  0  0
  2  9  1  0  0  0
  3 10  1  0  0  0
  3 11  1  0  0  0
  4 12  1  0  0  0
  4 13  1  0  0  0
  5 14  1  0  0  0
 15 16  1  0  0  0
 16 17  1  0  0  0
 17 18  1  0  0  0
 18 19  1  0  0  0
 15 19  1  0  0  0
 15 20  1  0  0  0
 15 21  1  0  0  0
 16 22  1  0  0  0
 16 23  1  0  0  0
 17 24  1  0  0  0
 17 25  1  0  0  0
 18 26  1  0  0  0
 18 27  1  0  0  0
 19 28  1  0  0  0
M  END
$$$$
