


 28 28  0  0  1  0            999 V2000
   11.8131  -10.6861   -7.4749 C   0  0  0  0  0  0
   12.0944  -11.1120   -6.0764 C   0  0  0  0  0  0
   11.0782  -10.1923   -5.3252 C   0  0  0  0  0  0
   10.0475   -9.8078   -6.3542 C   0  0  0  0  0  0
   10.9288   -9.5393   -7.4301 N   0  0  0  0  0  0
   11.2031  -11.4684   -7.9660 H   0  0  0  0  0  0
   12.7229  -10.5350   -8.0872 H   0  0  0  0  0  0
   11.9799  -12.2100   -5.9939 H   0  0  0  0  0  0
   13.0896  -10.8460   -5.6710 H   0  0  0  0  0  0
   11.6562   -9.3060   -4.9999 H   0  0  0  0  0  0
   10.6987  -10.6985   -4.4168 H   0  0  0  0  0  0
    9.4915   -8.8892   -6.0850 H   0  0  0  0  0  0
    9.3064  -10.5758   -6.6483 H   0  0  0  0  0  0
   10.4140   -9.4160   -8.3113 H   0  0  0  0  0  0
    8.8711   -6.3806   -1.3865 C   0  0  0  0  0  0
    8.7449   -6.2951    0.1343 C   0  0  0  0  0  0
    7.3958   -6.8784    0.4552 C   0  0  0  0  0  0
    7.0651   -7.7507   -0.7858 C   0  0  0  0  0  0
    8.0388   -7.4417   -1.8118 N   0  0  0  0  0  0
    9.8946   -6.5522   -1.7717 H   0  0  0  0  0  0
    8.4852   -5.4556   -1.8565 H   0  0  0  0  0  0
    9.5495   -6.9298    0.5529 H   0  0  0  0  0  0
    8.8957   -5.2663    0.5144 H   0  0  0  0  0  0
    6.6577   -6.0547    0.5033 H   0  0  0  0  0  0
    7.2975   -7.4729    1.3838 H   0  0  0  0  0  0
    6.0832   -7.4698   -1.2129 H   0  0  0  0  0  0
    7.0306   -8.8304   -0.5442 H   0  0  0  0  0  0
    7.6234   -7.2272   -2.7273 H   0  0  0  0  0  0
  1  2  1  0  0  0
  2  3  1  0  0  0
  3  4  1  0  0  0
  4  5  1  0  0  0
  1  5  1  0  0  0
  1  6  1  0  0  0
  1  7  1  0  0  0
  2  8  1  0  0  0
  2  9  1  0  0  0
  3 10  1  0  0  0
  3 11  1  0  0  0
  4 12  1  0  0  0
  4 13  1  0  0  0
  5 14  1  0  0  0
 15 16  1  0  0  0
 16 17  1  0  0  0
 17 18  1  0  0  0
 18 19  1  0  0  0
 15 19  1  0  0  0
 15 20  1  0  0  0
 15 21  1  0  0  0
 16 22  1  0  0  0
 16 23  1  0  0  0
 17 24  1  0  0  0
 17 25  1  0  0  0
 18 26  1  0  0  0
 18 27  1  0  0  0
 19 28  1  0  0  0
M  END
$$$$
