


 22 20  0  0  1  0            999 V2000
    2.8231    0.2803    0.3890 C   0  0  0  0  0  0
    3.2605    0.6529    1.8054 C   0  0  0  0  0  0
    4.7663    0.9106    1.8548 C   0  0  0  0  0  0
    2.4877    1.8735    2.3050 C   0  0  0  0  0  0
    3.0409    1.1164   -0.2966 H   0  0  0  0  0  0
    1.7404    0.0721    0.3571 H   0  0  0  0  0  0
    3.3640   -0.6139    0.0363 H   0  0  0  0  0  0
    3.0321   -0.2008    2.4754 H   0  0  0  0  0  0
    5.0178    1.7577    1.1945 H   0  0  0  0  0  0
    5.0864    1.1574    2.8811 H   0  0  0  0  0  0
    5.3254    0.0223    1.5159 H   0  0  0  0  0  0
    1.4019    1.6802    2.2912 H   0  0  0  0  0  0
    2.7864    2.1293    3.3356 H   0  0  0  0  0  0
    2.6997    2.7371    1.6526 H   0  0  0  0  0  0
   -3.2920    5.7393   -0.7951 C   0  0  0  0  0  0
   -2.4040    4.9993   -1.7459 N   0  0  0  0  0  0
   -1.8783    5.6640   -2.3486 H   0  0  0  0  0  0
   -1.7172    4.4158   -1.2268 H   0  0  0  0  0  0
   -2.9647    4.3748   -2.3601 H   0  0  0  0  0  0
   -2.6927    6.3998   -0.1462 H   0  0  0  0  0  0
   -3.8472    5.0300   -0.1584 H   0  0  0  0  0  0
   -4.0183    6.3563   -1.3504 H   0  0  0  0  0  0
  1  2  1  0  0  0
  2  3  1  0  0  0
  2  4  1  0  0  0
  1  5  1  0  0  0
  1  6  1  0  0  0
  1  7  1  0  0  0
  2  8  1  0  0  0
  3  9  1  0  0  0
  3 10  1  0  0  0
  3 11  1  0  0  0
  4 12  1  0  0  0
  4 13  1  0  0  0
  4 14  1  0  0  0
 15 16  1  0  0  0
 16 17  1  0  0  0
 16 18  1  0  0  0
 16 19  1  0  0  0
 15 20  1  0  0  0
 15 21  1  0  0  0
 15 22  1  0  0  0
M  CHG  1  16   1
M  END
$$$$
