


 30 29  0  0  1  0            999 V2000
    0.4795    2.4338   -1.5292 C   0  0  0  0  0  0
    0.2700    1.1573   -0.7889 N   0  0  0  0  0  0
    0.0055    0.0578   -1.7596 C   0  0  0  0  0  0
    1.4905    0.8370    0.0042 C   0  0  0  0  0  0
   -0.8954    1.3008    0.1289 C   0  0  0  0  0  0
    1.3399    2.3432   -2.2135 H   0  0  0  0  0  0
    0.6767    3.2582   -0.8234 H   0  0  0  0  0  0
   -0.4164    2.6847   -2.1217 H   0  0  0  0  0  0
    0.8603   -0.0608   -2.4466 H   0  0  0  0  0  0
   -0.1518   -0.8947   -1.2262 H   0  0  0  0  0  0
   -0.8959    0.2807   -2.3549 H   0  0  0  0  0  0
    1.6995    1.6425    0.7280 H   0  0  0  0  0  0
    1.3506   -0.1064    0.5584 H   0  0  0  0  0  0
    2.3627    0.7276   -0.6620 H   0  0  0  0  0  0
   -0.7144    2.1119    0.8542 H   0  0  0  0  0  0
   -1.8075    1.5383   -0.4442 H   0  0  0  0  0  0
   -1.0633    0.3629    0.6845 H   0  0  0  0  0  0
    1.0388    4.2091    2.5568 O   0  0  0  0  0  0
    1.0722    3.9783    3.9090 C   0  0  0  0  0  0
    0.8422    2.6705    4.3371 C   0  0  0  0  0  0
    0.8639    2.3767    5.6983 C   0  0  0  0  0  0
    1.1136    3.3788    6.6374 C   0  0  0  0  0  0
    1.3425    4.6833    6.2028 C   0  0  0  0  0  0
    1.3226    4.9862    4.8412 C   0  0  0  0  0  0
    1.2166    5.1683    2.4003 H   0  0  0  0  0  0
    0.6472    1.8929    3.5868 H   0  0  0  0  0  0
    0.6822    1.3456    6.0290 H   0  0  0  0  0  0
    1.1296    3.1422    7.7095 H   0  0  0  0  0  0
    1.5403    5.4819    6.9299 H   0  0  0  0  0  0
    1.5032    6.0143    4.5005 H   0  0  0  0  0  0
  1  2  1  0  0  0
  2  3  1  0  0  0
  2  4  1  0  0  0
  2  5  1  0  0  0
  1  6  1  0  0  0
  1  7  1  0  0  0
  1  8  1  0  0  0
  3  9  1  0  0  0
  3 10  1  0  0  0
  3 11  1  0  0  0
  4 12  1  0  0  0
  4 13  1  0  0  0
  4 14  1  0  0  0
  5 15  1  0  0  0
  5 16  1  0  0  0
  5 17  1  0  0  0
 18 19  1  0  0  0
 19 20  2  0  0  0
 20 21  1  0  0  0
 21 22  2  0  0  0
 22 23  1  0  0  0
 23 24  2  0  0  0
 19 24  1  0  0  0
 18 25  1  0  0  0
 20 26  1  0  0  0
 21 27  1  0  0  0
 22 28  1  0  0  0
 23 29  1  0  0  0
 24 30  1  0  0  0
M  CHG  1   2   1
M  END
$$$$
