


 19 18  0  0  1  0            999 V2000
    0.6187    2.2663    1.3736 C   0  0  0  0  0  0
    2.2568    3.0389    1.3645 S   0  0  0  0  0  0
    0.4890    1.8072    2.3681 H   0  0  0  0  0  0
    0.5279    1.4779    0.6076 H   0  0  0  0  0  0
   -0.1878    3.0025    1.2181 H   0  0  0  0  0  0
    2.2006    3.5176    0.1035 H   0  0  0  0  0  0
    2.5306    0.8562    0.1182 O   0  0  0  0  0  0
    2.2478   -0.0895    1.0713 C   0  0  0  0  0  0
    1.9069   -1.3650    0.6204 C   0  0  0  0  0  0
    1.6096   -2.3656    1.5423 C   0  0  0  0  0  0
    1.6498   -2.1035    2.9128 C   0  0  0  0  0  0
    1.9912   -0.8270    3.3564 C   0  0  0  0  0  0
    2.2904    0.1811    2.4397 C   0  0  0  0  0  0
    2.7532    1.7029    0.5763 H   0  0  0  0  0  0
    1.8794   -1.5562   -0.4605 H   0  0  0  0  0  0
    1.3420   -3.3675    1.1813 H   0  0  0  0  0  0
    1.4146   -2.8958    3.6357 H   0  0  0  0  0  0
    2.0269   -0.6061    4.4313 H   0  0  0  0  0  0
    2.5591    1.1861    2.7908 H   0  0  0  0  0  0
  1  2  1  0  0  0
  1  3  1  0  0  0
  1  4  1  0  0  0
  1  5  1  0  0  0
  2  6  1  0  0  0
  7  8  1  0  0  0
  8  9  2  0  0  0
  9 10  1  0  0  0
 10 11  2  0  0  0
 11 12  1  0  0  0
 12 13  2  0  0  0
  8 13  1  0  0  0
  7 14  1  0  0  0
  9 15  1  0  0  0
 10 16  1  0  0  0
 11 17  1  0  0  0
 12 18  1  0  0  0
 13 19  1  0  0  0
M  END
$$$$
