


  4  2  0  0  1  0            999 V2000
    1.4907   -0.1148   -0.3700 H   0  0  0  0  0  0
    2.2421    0.0346   -0.4080 H   0  0  0  0  0  0
    1.4224    2.5916    1.2469 H   0  0  0  0  0  0
    1.5442    2.1281    1.8457 H   0  0  0  0  0  0
  1  2  1  0  0  0
  3  4  1  0  0  0
M  END
$$$$
