


 19 17  0  0  1  0            999 V2000
    6.3944    4.4328    0.9133 C   0  0  0  0  0  0
    5.6224    3.9626    2.0004 O   0  0  0  0  0  0
    6.2652    4.2501    3.2264 C   0  0  0  0  0  0
    5.8525    4.1853   -0.0149 H   0  0  0  0  0  0
    7.3862    3.9512    0.8808 H   0  0  0  0  0  0
    6.5353    5.5258    0.9577 H   0  0  0  0  0  0
    7.2515    3.7607    3.2927 H   0  0  0  0  0  0
    6.4006    5.3354    3.3695 H   0  0  0  0  0  0
    5.6261    3.8651    4.0387 H   0  0  0  0  0  0
    0.8184    0.0819    1.4256 N   0  0  0  0  0  0
   -0.3149    0.7829    1.4177 C   0  0  0  0  0  0
   -1.4853    0.1561    1.3028 N   0  0  0  0  0  0
   -2.3553    0.6942    1.2967 H   0  0  0  0  0  0
   -1.5138   -0.8632    1.2207 H   0  0  0  0  0  0
   -0.2778    2.1107    1.5246 N   0  0  0  0  0  0
    0.7900   -0.9374    1.3435 H   0  0  0  0  0  0
    1.7169    0.5631    1.5138 H   0  0  0  0  0  0
    0.6206    2.5919    1.6128 H   0  0  0  0  0  0
   -1.1478    2.6489    1.5185 H   0  0  0  0  0  0
  1  2  1  0  0  0
  2  3  1  0  0  0
  1  4  1  0  0  0
  1  5  1  0  0  0
  1  6  1  0  0  0
  3  7  1  0  0  0
  3  8  1  0  0  0
  3  9  1  0  0  0
 10 11  2  0  0  0
 11 12  1  0  0  0
 12 13  1  0  0  0
 12 14  1  0  0  0
 11 15  1  0  0  0
 10 16  1  0  0  0
 10 17  1  0  0  0
 15 18  1  0  0  0
 15 19  1  0  0  0
M  CHG  1  10   1
M  END
$$$$
