


 24 23  0  0  1  0            999 V2000
    0.7513   -1.5104    1.5799 C   0  0  0  0  0  0
    0.3638   -0.2446    0.9885 N   0  0  0  0  0  0
   -0.3112    0.6893    1.7145 C   0  0  0  0  0  0
   -0.6141    0.4948    2.8879 O   0  0  0  0  0  0
   -0.6505    1.9625    0.9687 C   0  0  0  0  0  0
    1.2830   -2.1128    0.8242 H   0  0  0  0  0  0
   -0.1334   -2.0743    1.9205 H   0  0  0  0  0  0
    1.4223   -1.3547    2.4413 H   0  0  0  0  0  0
    0.5982   -0.0451    0.0129 H   0  0  0  0  0  0
   -1.2923    1.7512    0.0970 H   0  0  0  0  0  0
   -1.1922    2.6421    1.6479 H   0  0  0  0  0  0
    0.2634    2.4708    0.6178 H   0  0  0  0  0  0
    4.2759    0.9756    0.4696 Cl  0  0  0  0  0  0
    3.5916    2.3918    1.2037 C   0  0  0  0  0  0
    3.0285    2.2984    2.4747 C   0  0  0  0  0  0
    2.4807    3.4418    3.0574 C   0  0  0  0  0  0
    2.4965    4.6592    2.3780 C   0  0  0  0  0  0
    3.0648    4.7340    1.1056 C   0  0  0  0  0  0
    3.6163    3.6010    0.5094 C   0  0  0  0  0  0
    3.0220    1.3341    2.9997 H   0  0  0  0  0  0
    2.0354    3.3746    4.0588 H   0  0  0  0  0  0
    2.0638    5.5554    2.8419 H   0  0  0  0  0  0
    3.0811    5.6891    0.5642 H   0  0  0  0  0  0
    4.0664    3.6467   -0.4911 H   0  0  0  0  0  0
  1  2  1  0  0  0
  2  3  1  0  0  0
  3  4  2  0  0  0
  3  5  1  0  0  0
  1  6  1  0  0  0
  1  7  1  0  0  0
  1  8  1  0  0  0
  2  9  1  0  0  0
  5 10  1  0  0  0
  5 11  1  0  0  0
  5 12  1  0  0  0
 13 14  1  0  0  0
 14 15  1  0  0  0
 15 16  2  0  0  0
 16 17  1  0  0  0
 17 18  2  0  0  0
 18 19  1  0  0  0
 14 19  2  0  0  0
 15 20  1  0  0  0
 16 21  1  0  0  0
 17 22  1  0  0  0
 18 23  1  0  0  0
 19 24  1  0  0  0
M  END
$$$$
