


 20 18  0  0  1  0            999 V2000
    0.0000    0.0000    0.0000 C   0  0  0  0  0  0
   -0.7673    0.3419   -1.2884 C   0  0  0  0  0  0
   -2.3258    0.3712   -1.0484 C   0  0  0  0  0  0
   -0.3271    1.7845   -1.5893 C   0  0  0  0  0  0
   -0.4674   -0.6584   -2.3936 C   0  0  0  0  0  0
   -0.4447   -0.8112    0.6006 H   0  0  0  0  0  0
    0.1836    0.8654    0.6587 H   0  0  0  0  0  0
    0.9668   -0.3484   -0.4008 H   0  0  0  0  0  0
   -2.8586    0.7661   -1.9297 H   0  0  0  0  0  0
   -2.5687    1.0036   -0.1779 H   0  0  0  0  0  0
   -2.6843   -0.6529   -0.8503 H   0  0  0  0  0  0
    0.7373    1.7506   -1.8765 H   0  0  0  0  0  0
   -0.4352    2.4515   -0.7175 H   0  0  0  0  0  0
   -0.9048    2.2064   -2.4289 H   0  0  0  0  0  0
   -1.1570   -0.5429   -3.2466 H   0  0  0  0  0  0
   -0.4827   -1.7125   -2.0690 H   0  0  0  0  0  0
    0.5530   -0.4085   -2.7297 H   0  0  0  0  0  0
    0.5636    5.9969   -2.1921 O   0  0  0  0  0  0
    0.2933    6.3481   -1.3135 H   0  0  0  0  0  0
    0.8650    5.0781   -2.0099 H   0  0  0  0  0  0
  1  2  1  0  0  0
  2  3  1  0  0  0
  2  4  1  0  0  0
  2  5  1  0  0  0
  1  6  1  0  0  0
  1  7  1  0  0  0
  1  8  1  0  0  0
  3  9  1  0  0  0
  3 10  1  0  0  0
  3 11  1  0  0  0
  4 12  1  0  0  0
  4 13  1  0  0  0
  4 14  1  0  0  0
  5 15  1  0  0  0
  5 16  1  0  0  0
  5 17  1  0  0  0
 18 19  1  0  0  0
 18 20  1  0  0  0
M  END
$$$$
