


 16 15  0  0  1  0            999 V2000
    2.8477    2.0194    0.7973 C   0  0  0  0  0  0
    2.0931    3.1884    0.2196 C   0  0  0  0  0  0
    0.9118    3.3864    0.4261 O   0  0  0  0  0  0
    2.3824    1.0786    0.4584 H   0  0  0  0  0  0
    2.7989    2.0593    1.8985 H   0  0  0  0  0  0
    3.9077    2.0177    0.4921 H   0  0  0  0  0  0
    2.6715    3.8923   -0.4266 H   0  0  0  0  0  0
   -0.3301    0.5133    1.5472 C   0  0  0  0  0  0
   -0.5080   -0.2458    2.6168 N   0  0  0  0  0  0
   -0.1780    0.5542    3.6846 C   0  0  0  0  0  0
    0.2025    1.8076    3.2563 C   0  0  0  0  0  0
    0.0987    1.7617    1.8883 N   0  0  0  0  0  0
    0.3058    2.5264    1.2412 H   0  0  0  0  0  0
   -0.4952    0.2131    0.5124 H   0  0  0  0  0  0
   -0.2310    0.1871    4.7095 H   0  0  0  0  0  0
    0.5285    2.7025    3.7863 H   0  0  0  0  0  0
  1  2  1  0  0  0
  2  3  2  0  0  0
  1  4  1  0  0  0
  1  5  1  0  0  0
  1  6  1  0  0  0
  2  7  1  0  0  0
  8  9  2  0  0  0
  9 10  1  0  0  0
 10 11  2  0  0  0
 11 12  1  0  0  0
 12 13  1  0  0  0
  8 12  1  0  0  0
  8 14  1  0  0  0
 10 15  1  0  0  0
 11 16  1  0  0  0
M  END
$$$$
