


 17 15  0  0  1  0            999 V2000
   -0.3476    1.0918   -0.4506 C   0  0  0  0  0  0
    0.6038    2.2211   -0.1947 C   0  0  0  0  0  0
    0.5723    3.1099   -1.2356 F   0  0  0  0  0  0
    0.2282    2.9098    0.9273 F   0  0  0  0  0  0
   -1.3715    1.4819   -0.5774 H   0  0  0  0  0  0
   -0.3431    0.3841    0.3954 H   0  0  0  0  0  0
   -0.0627    0.5471   -1.3664 H   0  0  0  0  0  0
    1.6590    1.9097   -0.0556 H   0  0  0  0  0  0
    1.1028    0.1604    3.5285 C   0  0  0  0  0  0
    2.1500    0.1975    2.5795 O   0  0  0  0  0  0
    3.0998    1.1853    2.9271 C   0  0  0  0  0  0
    0.3921   -0.6221    3.2135 H   0  0  0  0  0  0
    0.5665    1.1228    3.5798 H   0  0  0  0  0  0
    1.4762   -0.0884    4.5361 H   0  0  0  0  0  0
    2.6488    2.1916    2.9527 H   0  0  0  0  0  0
    3.5585    0.9803    3.9091 H   0  0  0  0  0  0
    3.8918    1.1742    2.1596 H   0  0  0  0  0  0
  1  2  1  0  0  0
  2  3  1  0  0  0
  2  4  1  0  0  0
  1  5  1  0  0  0
  1  6  1  0  0  0
  1  7  1  0  0  0
  2  8  1  0  0  0
  9 10  1  0  0  0
 10 11  1  0  0  0
  9 12  1  0  0  0
  9 13  1  0  0  0
  9 14  1  0  0  0
 11 15  1  0  0  0
 11 16  1  0  0  0
 11 17  1  0  0  0
M  END
$$$$
