


 30 30  0  0  1  0            999 V2000
   -1.3028    1.7171    1.4749 C   0  0  0  0  0  0
   -1.0249    3.1657    1.8961 C   0  0  0  0  0  0
   -0.5939    3.8204    0.5834 C   0  0  0  0  0  0
    0.3607    2.7792   -0.0147 C   0  0  0  0  0  0
   -0.2438    1.4082    0.3848 C   0  0  0  0  0  0
   -2.3187    1.6583    1.0391 H   0  0  0  0  0  0
   -1.2586    1.0067    2.3227 H   0  0  0  0  0  0
   -1.8970    3.6538    2.3721 H   0  0  0  0  0  0
   -0.1853    3.1996    2.6168 H   0  0  0  0  0  0
   -0.1246    4.8144    0.7143 H   0  0  0  0  0  0
   -1.4775    3.9489   -0.0710 H   0  0  0  0  0  0
    1.3588    2.8991    0.4488 H   0  0  0  0  0  0
    0.4830    2.8863   -1.1097 H   0  0  0  0  0  0
    0.5426    0.7330    0.7735 H   0  0  0  0  0  0
   -0.7135    0.9116   -0.4860 H   0  0  0  0  0  0
    6.4750    3.1965    3.4355 C   0  0  0  0  0  0
    5.4546    3.9659    4.2840 C   0  0  0  0  0  0
    5.1314    2.9743    5.4019 C   0  0  0  0  0  0
    4.9675    1.6520    4.6420 C   0  0  0  0  0  0
    6.0115    1.7178    3.4973 C   0  0  0  0  0  0
    7.4755    3.2962    3.8988 H   0  0  0  0  0  0
    6.5452    3.5762    2.3981 H   0  0  0  0  0  0
    5.8386    4.9382    4.6482 H   0  0  0  0  0  0
    4.5396    4.1652    3.6936 H   0  0  0  0  0  0
    4.2375    3.2474    5.9951 H   0  0  0  0  0  0
    5.9904    2.9113    6.0973 H   0  0  0  0  0  0
    3.9463    1.6062    4.2170 H   0  0  0  0  0  0
    5.1028    0.7641    5.2891 H   0  0  0  0  0  0
    5.5592    1.4019    2.5375 H   0  0  0  0  0  0
    6.8689    1.0482    3.7018 H   0  0  0  0  0  0
  1  2  1  0  0  0
  2  3  1  0  0  0
  3  4  1  0  0  0
  4  5  1  0  0  0
  1  5  1  0  0  0
  1  6  1  0  0  0
  1  7  1  0  0  0
  2  8  1  0  0  0
  2  9  1  0  0  0
  3 10  1  0  0  0
  3 11  1  0  0  0
  4 12  1  0  0  0
  4 13  1  0  0  0
  5 14  1  0  0  0
  5 15  1  0  0  0
 16 17  1  0  0  0
 17 18  1  0  0  0
 18 19  1  0  0  0
 19 20  1  0  0  0
 16 20  1  0  0  0
 16 21  1  0  0  0
 16 22  1  0  0  0
 17 23  1  0  0  0
 17 24  1  0  0  0
 18 25  1  0  0  0
 18 26  1  0  0  0
 19 27  1  0  0  0
 19 28  1  0  0  0
 20 29  1  0  0  0
 20 30  1  0  0  0
M  END
$$$$
