


 30 30  0  0  1  0            999 V2000
   -1.3028    1.7171    1.4749 C   0  0  0  0  0  0
   -1.0249    3.1657    1.8961 C   0  0  0  0  0  0
   -0.5939    3.8204    0.5834 C   0  0  0  0  0  0
    0.3607    2.7792   -0.0147 C   0  0  0  0  0  0
   -0.2438    1.4082    0.3848 C   0  0  0  0  0  0
   -2.3187    1.6583    1.0391 H   0  0  0  0  0  0
   -1.2586    1.0067    2.3227 H   0  0  0  0  0  0
   -1.8970    3.6538    2.3721 H   0  0  0  0  0  0
   -0.1853    3.1996    2.6168 H   0  0  0  0  0  0
   -0.1246    4.8144    0.7143 H   0  0  0  0  0  0
   -1.4775    3.9489   -0.0710 H   0  0  0  0  0  0
    1.3588    2.8991    0.4488 H   0  0  0  0  0  0
    0.4830    2.8863   -1.1097 H   0  0  0  0  0  0
    0.5426    0.7330    0.7735 H   0  0  0  0  0  0
   -0.7135    0.9116   -0.4860 H   0  0  0  0  0  0
    3.3801    3.0947    1.8043 C   0  0  0  0  0  0
    2.3597    3.8642    2.6527 C   0  0  0  0  0  0
    2.0365    2.8725    3.7706 C   0  0  0  0  0  0
    1.8725    1.5502    3.0107 C   0  0  0  0  0  0
    2.9165    1.6161    1.8660 C   0  0  0  0  0  0
    4.3805    3.1945    2.2675 H   0  0  0  0  0  0
    3.4503    3.4744    0.7668 H   0  0  0  0  0  0
    2.7437    4.8364    3.0169 H   0  0  0  0  0  0
    1.4447    4.0635    2.0623 H   0  0  0  0  0  0
    1.1426    3.1456    4.3638 H   0  0  0  0  0  0
    2.8955    2.8095    4.4660 H   0  0  0  0  0  0
    0.8514    1.5044    2.5857 H   0  0  0  0  0  0
    2.0079    0.6623    3.6578 H   0  0  0  0  0  0
    2.4642    1.3002    0.9062 H   0  0  0  0  0  0
    3.7740    0.9465    2.0705 H   0  0  0  0  0  0
  1  2  1  0  0  0
  2  3  1  0  0  0
  3  4  1  0  0  0
  4  5  1  0  0  0
  1  5  1  0  0  0
  1  6  1  0  0  0
  1  7  1  0  0  0
  2  8  1  0  0  0
  2  9  1  0  0  0
  3 10  1  0  0  0
  3 11  1  0  0  0
  4 12  1  0  0  0
  4 13  1  0  0  0
  5 14  1  0  0  0
  5 15  1  0  0  0
 16 17  1  0  0  0
 17 18  1  0  0  0
 18 19  1  0  0  0
 19 20  1  0  0  0
 16 20  1  0  0  0
 16 21  1  0  0  0
 16 22  1  0  0  0
 17 23  1  0  0  0
 17 24  1  0  0  0
 18 25  1  0  0  0
 18 26  1  0  0  0
 19 27  1  0  0  0
 19 28  1  0  0  0
 20 29  1  0  0  0
 20 30  1  0  0  0
M  END
$$$$
