


 30 30  0  0  1  0            999 V2000
    1.3394  -13.0989    9.6190 C   0  0  0  0  0  0
    1.3827  -13.4508   11.1494 C   0  0  0  0  0  0
    0.8630  -12.1556   11.8573 C   0  0  0  0  0  0
   -0.1128  -11.5601   10.8385 C   0  0  0  0  0  0
    0.0148  -12.3678    9.5840 C   0  0  0  0  0  0
    1.2175  -13.9988    8.9860 H   0  0  0  0  0  0
    2.1697  -12.5006    9.1972 H   0  0  0  0  0  0
    0.7410  -14.3287   11.3565 H   0  0  0  0  0  0
    2.4050  -13.6910   11.4996 H   0  0  0  0  0  0
    1.7711  -11.5638   12.0822 H   0  0  0  0  0  0
    0.2985  -12.2777   12.8017 H   0  0  0  0  0  0
    0.1571  -10.4934   10.7164 H   0  0  0  0  0  0
   -1.1865  -11.6072   11.1041 H   0  0  0  0  0  0
    0.0637  -11.6788    8.7189 H   0  0  0  0  0  0
   -0.8590  -13.0313    9.4368 H   0  0  0  0  0  0
   -2.5913  -11.7922    7.2003 C   0  0  0  0  0  0
   -3.0562  -13.0768    7.8442 C   0  0  0  0  0  0
   -3.1572  -12.7695    9.3884 C   0  0  0  0  0  0
   -3.3528  -11.2094    9.4264 C   0  0  0  0  0  0
   -2.5985  -10.6684    8.1719 C   0  0  0  0  0  0
   -3.2912  -11.6856    6.3492 H   0  0  0  0  0  0
   -1.6062  -12.0882    6.7909 H   0  0  0  0  0  0
   -3.9995  -13.4025    7.3651 H   0  0  0  0  0  0
   -2.2962  -13.8599    7.6579 H   0  0  0  0  0  0
   -2.2069  -12.9145    9.9373 H   0  0  0  0  0  0
   -3.9376  -13.3615    9.9042 H   0  0  0  0  0  0
   -2.8992  -10.7536   10.3275 H   0  0  0  0  0  0
   -4.3766  -10.8016    9.3219 H   0  0  0  0  0  0
   -1.5611  -10.4437    8.4864 H   0  0  0  0  0  0
   -3.0415   -9.7326    7.7801 H   0  0  0  0  0  0
  1  2  1  0  0  0
  2  3  1  0  0  0
  3  4  1  0  0  0
  4  5  1  0  0  0
  1  5  1  0  0  0
  1  6  1  0  0  0
  1  7  1  0  0  0
  2  8  1  0  0  0
  2  9  1  0  0  0
  3 10  1  0  0  0
  3 11  1  0  0  0
  4 12  1  0  0  0
  4 13  1  0  0  0
  5 14  1  0  0  0
  5 15  1  0  0  0
 16 17  1  0  0  0
 17 18  1  0  0  0
 18 19  1  0  0  0
 19 20  1  0  0  0
 16 20  1  0  0  0
 16 21  1  0  0  0
 16 22  1  0  0  0
 17 23  1  0  0  0
 17 24  1  0  0  0
 18 25  1  0  0  0
 18 26  1  0  0  0
 19 27  1  0  0  0
 19 28  1  0  0  0
 20 29  1  0  0  0
 20 30  1  0  0  0
M  END
$$$$
