


 30 30  0  0  1  0            999 V2000
   -3.9391   -3.2455   -5.5871 C   0  0  0  0  0  0
   -3.8670   -2.3481   -6.8680 C   0  0  0  0  0  0
   -4.0807   -0.9643   -6.2848 C   0  0  0  0  0  0
   -3.2200   -0.9383   -5.0282 C   0  0  0  0  0  0
   -3.2052   -2.3774   -4.5322 C   0  0  0  0  0  0
   -3.5183   -4.2446   -5.8113 H   0  0  0  0  0  0
   -4.9862   -3.3876   -5.2573 H   0  0  0  0  0  0
   -2.8291   -2.4251   -7.2452 H   0  0  0  0  0  0
   -4.5491   -2.4937   -7.7277 H   0  0  0  0  0  0
   -5.1209   -0.7460   -5.9754 H   0  0  0  0  0  0
   -3.7925   -0.2159   -7.0479 H   0  0  0  0  0  0
   -3.5774   -0.2037   -4.2811 H   0  0  0  0  0  0
   -2.1843   -0.6613   -5.3038 H   0  0  0  0  0  0
   -3.6413   -2.4588   -3.5180 H   0  0  0  0  0  0
   -2.1969   -2.8333   -4.5026 H   0  0  0  0  0  0
    2.4919    5.0468   -1.2402 C   0  0  0  0  0  0
    3.2000    3.9838   -2.0494 C   0  0  0  0  0  0
    2.1059    3.1018   -2.7089 C   0  0  0  0  0  0
    0.9894    4.0587   -2.9152 C   0  0  0  0  0  0
    1.0176    4.8877   -1.6069 C   0  0  0  0  0  0
    2.8403    6.0340   -1.6002 H   0  0  0  0  0  0
    2.7825    4.9549   -0.1760 H   0  0  0  0  0  0
    3.7758    4.5157   -2.8311 H   0  0  0  0  0  0
    3.9226    3.4423   -1.4090 H   0  0  0  0  0  0
    1.7880    2.2857   -2.0319 H   0  0  0  0  0  0
    2.3374    2.6515   -3.6933 H   0  0  0  0  0  0
    0.0270    3.6912   -3.3206 H   0  0  0  0  0  0
    1.4310    4.7430   -3.6649 H   0  0  0  0  0  0
    0.6485    4.3048   -0.7412 H   0  0  0  0  0  0
    0.5457    5.8882   -1.5648 H   0  0  0  0  0  0
  1  2  1  0  0  0
  2  3  1  0  0  0
  3  4  1  0  0  0
  4  5  1  0  0  0
  1  5  1  0  0  0
  1  6  1  0  0  0
  1  7  1  0  0  0
  2  8  1  0  0  0
  2  9  1  0  0  0
  3 10  1  0  0  0
  3 11  1  0  0  0
  4 12  1  0  0  0
  4 13  1  0  0  0
  5 14  1  0  0  0
  5 15  1  0  0  0
 16 17  1  0  0  0
 17 18  1  0  0  0
 18 19  1  0  0  0
 19 20  1  0  0  0
 16 20  1  0  0  0
 16 21  1  0  0  0
 16 22  1  0  0  0
 17 23  1  0  0  0
 17 24  1  0  0  0
 18 25  1  0  0  0
 18 26  1  0  0  0
 19 27  1  0  0  0
 19 28  1  0  0  0
 20 29  1  0  0  0
 20 30  1  0  0  0
M  END
$$$$
