


 29 27  0  0  1  0            999 V2000
    1.6012    0.7263    4.1410 C   0  0  0  0  0  0
    2.1177    0.2851    2.7719 C   0  0  0  0  0  0
    1.0124    0.2287    1.7198 C   0  0  0  0  0  0
    1.5289   -0.2125    0.3508 C   0  0  0  0  0  0
    2.4202    0.7577    4.8791 H   0  0  0  0  0  0
    0.8314    0.0224    4.4994 H   0  0  0  0  0  0
    1.1529    1.7316    4.0698 H   0  0  0  0  0  0
    2.9007    0.9886    2.4290 H   0  0  0  0  0  0
    2.5799   -0.7171    2.8577 H   0  0  0  0  0  0
    0.2294   -0.4748    2.0627 H   0  0  0  0  0  0
    0.5503    1.2309    1.6341 H   0  0  0  0  0  0
    1.9772   -1.2178    0.4219 H   0  0  0  0  0  0
    2.2987    0.4914   -0.0077 H   0  0  0  0  0  0
    0.7099   -0.2439   -0.3874 H   0  0  0  0  0  0
    5.1375    2.5813    2.3636 C   0  0  0  0  0  0
    3.7892    3.2527    2.5048 C   0  0  0  0  0  0
    3.0692    3.0686    1.2964 O   0  0  0  0  0  0
    1.7871    3.6734    1.3513 C   0  0  0  0  0  0
    1.0890    3.4321    0.0310 C   0  0  0  0  0  0
    5.7253    2.7056    3.2887 H   0  0  0  0  0  0
    5.7014    3.0254    1.5262 H   0  0  0  0  0  0
    5.0107    1.5029    2.1697 H   0  0  0  0  0  0
    3.2201    2.8153    3.3477 H   0  0  0  0  0  0
    3.9094    4.3347    2.7055 H   0  0  0  0  0  0
    1.2057    3.2386    2.1871 H   0  0  0  0  0  0
    1.8950    4.7580    1.5449 H   0  0  0  0  0  0
    0.9795    2.3500   -0.1529 H   0  0  0  0  0  0
    0.0859    3.8907    0.0395 H   0  0  0  0  0  0
    1.6703    3.8726   -0.7964 H   0  0  0  0  0  0
  1  2  1  0  0  0
  2  3  1  0  0  0
  3  4  1  0  0  0
  1  5  1  0  0  0
  1  6  1  0  0  0
  1  7  1  0  0  0
  2  8  1  0  0  0
  2  9  1  0  0  0
  3 10  1  0  0  0
  3 11  1  0  0  0
  4 12  1  0  0  0
  4 13  1  0  0  0
  4 14  1  0  0  0
 15 16  1  0  0  0
 16 17  1  0  0  0
 17 18  1  0  0  0
 18 19  1  0  0  0
 15 20  1  0  0  0
 15 21  1  0  0  0
 15 22  1  0  0  0
 16 23  1  0  0  0
 16 24  1  0  0  0
 18 25  1  0  0  0
 18 26  1  0  0  0
 19 27  1  0  0  0
 19 28  1  0  0  0
 19 29  1  0  0  0
M  END
$$$$
