


 25 25  0  0  1  0            999 V2000
    0.0000    0.0000    0.0000 C   0  0  0  0  0  0
    0.3028    1.2343   -0.8080 C   0  0  0  0  0  0
   -0.9944    2.0350   -1.0345 C   0  0  0  0  0  0
   -1.6006    2.7215   -0.0496 C   0  0  0  0  0  0
   -2.8017    3.2459   -0.4288 N   0  0  0  0  0  0
   -3.3726    3.9047    0.1066 H   0  0  0  0  0  0
   -3.0409    2.7412   -1.7287 C   0  0  0  0  0  0
   -1.8857    2.0795   -2.1335 C   0  0  0  0  0  0
   -1.7658    1.5251   -3.4210 C   0  0  0  0  0  0
   -2.7818    1.7127   -4.3692 C   0  0  0  0  0  0
   -4.0139    2.2797   -3.9032 C   0  0  0  0  0  0
   -4.1639    2.8103   -2.5766 C   0  0  0  0  0  0
    0.9398   -0.5761    0.0372 H   0  0  0  0  0  0
   -0.7554   -0.5938   -0.5416 H   0  0  0  0  0  0
   -0.3540    0.1627    1.0319 H   0  0  0  0  0  0
    1.0370    1.8567   -0.2612 H   0  0  0  0  0  0
    0.7709    0.9207   -1.7609 H   0  0  0  0  0  0
   -1.2717    2.8246    0.9845 H   0  0  0  0  0  0
   -0.8606    0.9531   -3.6637 H   0  0  0  0  0  0
   -2.6370    1.3352   -5.3900 H   0  0  0  0  0  0
   -4.8660    2.3876   -4.5871 H   0  0  0  0  0  0
   -5.0383    3.4057   -2.2825 H   0  0  0  0  0  0
   -3.8075   -0.4422   -6.8493 O   0  0  0  0  0  0
   -4.3849   -0.6265   -6.0741 H   0  0  0  0  0  0
   -4.0763    0.4550   -7.1511 H   0  0  0  0  0  0
  1  2  1  0  0  0
  2  3  1  0  0  0
  3  4  2  0  0  0
  4  5  1  0  0  0
  5  6  1  0  0  0
  5  7  1  0  0  0
  7  8  2  0  0  0
  3  8  1  0  0  0
  8  9  1  0  0  0
  9 10  2  0  0  0
 10 11  1  0  0  0
 11 12  2  0  0  0
  7 12  1  0  0  0
  1 13  1  0  0  0
  1 14  1  0  0  0
  1 15  1  0  0  0
  2 16  1  0  0  0
  2 17  1  0  0  0
  4 18  1  0  0  0
  9 19  1  0  0  0
 10 20  1  0  0  0
 11 21  1  0  0  0
 12 22  1  0  0  0
 23 24  1  0  0  0
 23 25  1  0  0  0
M  END
$$$$
