


 25 25  0  0  1  0            999 V2000
    0.0000    0.0000    0.0000 C   0  0  0  0  0  0
   -1.0186    0.1215   -1.1504 C   0  0  0  0  0  0
   -0.8502    1.4107   -1.9709 C   0  0  0  0  0  0
    0.2200    1.7402   -2.7455 C   0  0  0  0  0  0
   -0.0202    2.9452   -3.2767 N   0  0  0  0  0  0
    0.6254    3.3852   -3.9371 H   0  0  0  0  0  0
   -1.2222    3.4662   -2.9191 C   0  0  0  0  0  0
   -1.7993    2.4717   -2.0677 C   0  0  0  0  0  0
   -3.1053    2.7504   -1.6395 C   0  0  0  0  0  0
   -3.8275    3.9093   -2.0425 C   0  0  0  0  0  0
   -3.1294    4.9592   -2.7119 C   0  0  0  0  0  0
   -1.8700    4.6263   -3.2595 C   0  0  0  0  0  0
   -0.2975   -0.8809    0.5934 H   0  0  0  0  0  0
    0.0036    0.8838    0.6599 H   0  0  0  0  0  0
    1.0234   -0.1603   -0.3789 H   0  0  0  0  0  0
   -0.8595   -0.7362   -1.8320 H   0  0  0  0  0  0
   -2.0596    0.0666   -0.7777 H   0  0  0  0  0  0
    1.1012    1.1623   -3.0244 H   0  0  0  0  0  0
   -3.6825    2.0784   -0.9907 H   0  0  0  0  0  0
   -4.8653    4.0224   -1.7021 H   0  0  0  0  0  0
   -3.6128    5.8962   -3.0184 H   0  0  0  0  0  0
   -1.3728    5.3878   -3.8749 H   0  0  0  0  0  0
   -4.9420    1.0278   -4.3118 O   0  0  0  0  0  0
   -5.6767    0.3892   -4.1681 H   0  0  0  0  0  0
   -4.6524    1.2807   -3.4060 H   0  0  0  0  0  0
  1  2  1  0  0  0
  2  3  1  0  0  0
  3  4  2  0  0  0
  4  5  1  0  0  0
  5  6  1  0  0  0
  5  7  1  0  0  0
  7  8  2  0  0  0
  3  8  1  0  0  0
  8  9  1  0  0  0
  9 10  2  0  0  0
 10 11  1  0  0  0
 11 12  2  0  0  0
  7 12  1  0  0  0
  1 13  1  0  0  0
  1 14  1  0  0  0
  1 15  1  0  0  0
  2 16  1  0  0  0
  2 17  1  0  0  0
  4 18  1  0  0  0
  9 19  1  0  0  0
 10 20  1  0  0  0
 11 21  1  0  0  0
 12 22  1  0  0  0
 23 24  1  0  0  0
 23 25  1  0  0  0
M  END
$$$$
