


 29 28  0  0  1  0            999 V2000
    0.0424    2.4712    1.2867 C   0  0  0  0  0  0
    0.4520    2.6205    2.7527 C   0  0  0  0  0  0
    1.9709    2.5121    2.8953 C   0  0  0  0  0  0
    2.6622    3.5020    1.9646 C   0  0  0  0  0  0
    2.2466    3.2388    0.5854 N   0  0  0  0  0  0
    0.8091    3.4627    0.4189 C   0  0  0  0  0  0
   -1.0465    2.6313    1.1673 H   0  0  0  0  0  0
    0.2721    1.4461    0.9375 H   0  0  0  0  0  0
    0.1286    3.6153    3.1151 H   0  0  0  0  0  0
   -0.0510    1.8557    3.3751 H   0  0  0  0  0  0
    2.2988    1.4891    2.6280 H   0  0  0  0  0  0
    2.2793    2.7019    3.9414 H   0  0  0  0  0  0
    3.7620    3.3929    2.0276 H   0  0  0  0  0  0
    2.4072    4.5307    2.2843 H   0  0  0  0  0  0
    2.7649    3.8570   -0.0518 H   0  0  0  0  0  0
    0.5529    3.3247   -0.6492 H   0  0  0  0  0  0
    0.5146    4.4905    0.7057 H   0  0  0  0  0  0
    2.1251   -1.3662   -1.3819 C   0  0  0  0  0  0
    3.1541   -0.6909   -0.6155 N   0  0  0  0  0  0
    4.2948   -1.3399   -0.2517 C   0  0  0  0  0  0
    4.4921   -2.5123   -0.5571 O   0  0  0  0  0  0
    5.2804   -0.5118    0.5454 C   0  0  0  0  0  0
    1.2950   -0.6638   -1.5668 H   0  0  0  0  0  0
    1.7322   -2.2384   -0.8328 H   0  0  0  0  0  0
    2.5181   -1.7100   -2.3535 H   0  0  0  0  0  0
    3.0267    0.2866   -0.3417 H   0  0  0  0  0  0
    4.8302   -0.1618    1.4895 H   0  0  0  0  0  0
    6.1599   -1.1331    0.7840 H   0  0  0  0  0  0
    5.6160    0.3666   -0.0312 H   0  0  0  0  0  0
  1  2  1  0  0  0
  2  3  1  0  0  0
  3  4  1  0  0  0
  4  5  1  0  0  0
  5  6  1  0  0  0
  1  6  1  0  0  0
  1  7  1  0  0  0
  1  8  1  0  0  0
  2  9  1  0  0  0
  2 10  1  0  0  0
  3 11  1  0  0  0
  3 12  1  0  0  0
  4 13  1  0  0  0
  4 14  1  0  0  0
  5 15  1  0  0  0
  6 16  1  0  0  0
  6 17  1  0  0  0
 18 19  1  0  0  0
 19 20  1  0  0  0
 20 21  2  0  0  0
 20 22  1  0  0  0
 18 23  1  0  0  0
 18 24  1  0  0  0
 18 25  1  0  0  0
 19 26  1  0  0  0
 22 27  1  0  0  0
 22 28  1  0  0  0
 22 29  1  0  0  0
M  END
$$$$
