


 29 27  0  0  1  0            999 V2000
    0.9351    6.2305   -1.1025 C   0  0  0  0  0  0
    1.1359    4.8424   -1.5058 N   0  0  0  0  0  0
    0.9277    3.8005   -0.7085 C   0  0  0  0  0  0
    1.1348    2.5554   -1.1529 N   0  0  0  0  0  0
    1.4554    2.4019   -2.1121 H   0  0  0  0  0  0
    0.9726    1.7573   -0.5338 H   0  0  0  0  0  0
    0.5094    3.9959    0.5438 N   0  0  0  0  0  0
    1.1824    6.8794   -1.9595 H   0  0  0  0  0  0
    1.5888    6.5011   -0.2563 H   0  0  0  0  0  0
   -0.1124    6.4163   -0.8113 H   0  0  0  0  0  0
    1.4563    4.6566   -2.4594 H   0  0  0  0  0  0
    0.3502    4.9465    0.8865 H   0  0  0  0  0  0
    0.3480    3.1960    1.1607 H   0  0  0  0  0  0
    1.0631   -1.2155    3.3383 O   0  0  0  0  0  0
    0.6734   -2.3512    2.5451 C   0  0  0  0  0  0
   -0.8218   -2.2940    2.2861 C   0  0  0  0  0  0
   -1.3017   -1.2829    1.2373 C   0  0  0  0  0  0
   -1.2105    0.1910    1.6240 C   0  0  0  0  0  0
    0.1083    0.7176    1.5880 O   0  0  0  0  0  0
    2.0185   -1.2974    3.5401 H   0  0  0  0  0  0
    0.9221   -3.2807    3.0925 H   0  0  0  0  0  0
    1.2325   -2.3635    1.5897 H   0  0  0  0  0  0
   -1.1164   -3.3048    1.9445 H   0  0  0  0  0  0
   -1.3286   -2.1041    3.2518 H   0  0  0  0  0  0
   -0.7400   -1.4286    0.2946 H   0  0  0  0  0  0
   -2.3672   -1.5012    1.0315 H   0  0  0  0  0  0
   -1.7902    0.7897    0.8952 H   0  0  0  0  0  0
   -1.6669    0.3408    2.6213 H   0  0  0  0  0  0
    0.6116    0.2383    2.2789 H   0  0  0  0  0  0
  1  2  1  0  0  0
  2  3  1  0  0  0
  3  4  2  0  0  0
  4  5  1  0  0  0
  4  6  1  0  0  0
  3  7  1  0  0  0
  1  8  1  0  0  0
  1  9  1  0  0  0
  1 10  1  0  0  0
  2 11  1  0  0  0
  7 12  1  0  0  0
  7 13  1  0  0  0
 14 15  1  0  0  0
 15 16  1  0  0  0
 16 17  1  0  0  0
 17 18  1  0  0  0
 18 19  1  0  0  0
 14 20  1  0  0  0
 15 21  1  0  0  0
 15 22  1  0  0  0
 16 23  1  0  0  0
 16 24  1  0  0  0
 17 25  1  0  0  0
 17 26  1  0  0  0
 18 27  1  0  0  0
 18 28  1  0  0  0
 19 29  1  0  0  0
M  CHG  1   4   1
M  END
$$$$
