


 20 18  0  0  1  0            999 V2000
    0.3467    2.2023    3.1512 C   0  0  0  0  0  0
    1.8171    2.4447    3.3611 C   0  0  0  0  0  0
    2.5633    1.6583    4.1471 C   0  0  0  0  0  0
    2.3956    3.6270    2.6316 C   0  0  0  0  0  0
    0.0077    1.3202    3.7201 H   0  0  0  0  0  0
    0.1410    2.0312    2.0811 H   0  0  0  0  0  0
   -0.2322    3.0799    3.4848 H   0  0  0  0  0  0
    3.6331    1.8496    4.2887 H   0  0  0  0  0  0
    2.1253    0.8011    4.6711 H   0  0  0  0  0  0
    2.2589    3.5038    1.5440 H   0  0  0  0  0  0
    1.8856    4.5525    2.9477 H   0  0  0  0  0  0
    3.4736    3.7302    2.8411 H   0  0  0  0  0  0
    2.9388   -0.9547   -1.4579 C   0  0  0  0  0  0
    2.5609   -0.0009   -0.3643 C   0  0  0  0  0  0
    1.8567    0.9775   -0.4785 O   0  0  0  0  0  0
    3.1176   -0.3680    0.8200 O   0  0  0  0  0  0
    2.4797   -0.6431   -2.4112 H   0  0  0  0  0  0
    2.5913   -1.9732   -1.2163 H   0  0  0  0  0  0
    4.0341   -0.9778   -1.5859 H   0  0  0  0  0  0
    2.8139    0.3162    1.4770 H   0  0  0  0  0  0
  1  2  1  0  0  0
  2  3  2  0  0  0
  2  4  1  0  0  0
  1  5  1  0  0  0
  1  6  1  0  0  0
  1  7  1  0  0  0
  3  8  1  0  0  0
  3  9  1  0  0  0
  4 10  1  0  0  0
  4 11  1  0  0  0
  4 12  1  0  0  0
 13 14  1  0  0  0
 14 15  2  0  0  0
 14 16  1  0  0  0
 13 17  1  0  0  0
 13 18  1  0  0  0
 13 19  1  0  0  0
 16 20  1  0  0  0
M  END
$$$$
