


 29 28  0  0  1  0            999 V2000
    5.3660    0.8285    4.0088 C   0  0  0  0  0  0
    5.1436    1.2568    2.6591 O   0  0  0  0  0  0
    3.6990    1.0376    2.0397 P   0  0  0  0  0  0
    3.0745   -0.2699    2.3050 O   0  0  0  0  0  0
    2.9087    2.3067    2.5722 O   0  0  0  0  0  0
    1.4905    2.3470    2.3684 C   0  0  0  0  0  0
    3.9292    1.4012    0.5121 O   0  0  0  0  0  0
    4.4518    0.3807   -0.3482 C   0  0  0  0  0  0
    5.0405   -0.2136    4.1663 H   0  0  0  0  0  0
    4.8376    1.4749    4.7295 H   0  0  0  0  0  0
    6.4492    0.8925    4.2071 H   0  0  0  0  0  0
    1.2397    2.4991    1.3051 H   0  0  0  0  0  0
    1.0006    1.4221    2.7166 H   0  0  0  0  0  0
    1.0920    3.1961    2.9488 H   0  0  0  0  0  0
    5.5108    0.1680   -0.1249 H   0  0  0  0  0  0
    3.8791   -0.5582   -0.2642 H   0  0  0  0  0  0
    4.3777    0.7464   -1.3861 H   0  0  0  0  0  0
    0.2783    1.9112   -1.0122 C   0  0  0  0  0  0
    1.2018    0.8721   -0.8921 C   0  0  0  0  0  0
    1.0008   -0.1342    0.0535 C   0  0  0  0  0  0
   -0.1237   -0.1013    0.8790 C   0  0  0  0  0  0
   -1.0472    0.9379    0.7589 C   0  0  0  0  0  0
   -0.8462    1.9441   -0.1866 C   0  0  0  0  0  0
    0.4365    2.7030   -1.7563 H   0  0  0  0  0  0
    2.0867    0.8462   -1.5417 H   0  0  0  0  0  0
    1.7275   -0.9519    0.1479 H   0  0  0  0  0  0
   -0.2818   -0.8931    1.6231 H   0  0  0  0  0  0
   -1.9320    0.9638    1.4085 H   0  0  0  0  0  0
   -1.5728    2.7618   -0.2811 H   0  0  0  0  0  0
  1  2  1  0  0  0
  2  3  1  0  0  0
  3  4  2  0  0  0
  3  5  1  0  0  0
  5  6  1  0  0  0
  3  7  1  0  0  0
  7  8  1  0  0  0
  1  9  1  0  0  0
  1 10  1  0  0  0
  1 11  1  0  0  0
  6 12  1  0  0  0
  6 13  1  0  0  0
  6 14  1  0  0  0
  8 15  1  0  0  0
  8 16  1  0  0  0
  8 17  1  0  0  0
 18 19  1  0  0  0
 19 20  2  0  0  0
 20 21  1  0  0  0
 21 22  2  0  0  0
 22 23  1  0  0  0
 18 23  2  0  0  0
 18 24  1  0  0  0
 19 25  1  0  0  0
 20 26  1  0  0  0
 21 27  1  0  0  0
 22 28  1  0  0  0
 23 29  1  0  0  0
M  END
$$$$
