


 18 16  0  0  1  0            999 V2000
    3.3538    0.8798    3.6407 C   0  0  0  0  0  0
    2.0793    0.8905    2.8285 C   0  0  0  0  0  0
    2.0900    0.9923    1.6126 O   0  0  0  0  0  0
    0.7909    0.7678    3.6088 C   0  0  0  0  0  0
    4.2323    0.9681    2.9795 H   0  0  0  0  0  0
    3.4362   -0.0604    4.2115 H   0  0  0  0  0  0
    3.3614    1.7241    4.3504 H   0  0  0  0  0  0
    0.7722   -0.1827    4.1681 H   0  0  0  0  0  0
    0.6972    1.6002    4.3265 H   0  0  0  0  0  0
   -0.0758    0.7920    2.9270 H   0  0  0  0  0  0
    1.8193    1.2951   -2.6655 C   0  0  0  0  0  0
    0.5827    1.2101   -1.8266 N   0  0  0  0  0  0
   -0.0087    2.0553   -1.9593 H   0  0  0  0  0  0
    0.0207    0.3744   -2.0862 H   0  0  0  0  0  0
    0.8281    1.1383   -0.8186 H   0  0  0  0  0  0
    1.5535    1.3711   -3.7333 H   0  0  0  0  0  0
    2.4427    0.3967   -2.5212 H   0  0  0  0  0  0
    2.4115    2.1828   -2.3863 H   0  0  0  0  0  0
  1  2  1  0  0  0
  2  3  2  0  0  0
  2  4  1  0  0  0
  1  5  1  0  0  0
  1  6  1  0  0  0
  1  7  1  0  0  0
  4  8  1  0  0  0
  4  9  1  0  0  0
  4 10  1  0  0  0
 11 12  1  0  0  0
 12 13  1  0  0  0
 12 14  1  0  0  0
 12 15  1  0  0  0
 11 16  1  0  0  0
 11 17  1  0  0  0
 11 18  1  0  0  0
M  CHG  1  12   1
M  END
$$$$
