


 16 14  0  0  1  0            999 V2000
    2.2063    4.1425    1.0089 C   0  0  0  0  0  0
    1.9508    2.7958    1.6494 C   0  0  0  0  0  0
    0.9425    2.5385    2.2922 O   0  0  0  0  0  0
    2.9410    1.8740    1.4556 N   0  0  0  0  0  0
    1.3556    4.8116    1.2212 H   0  0  0  0  0  0
    2.3127    4.0446   -0.0846 H   0  0  0  0  0  0
    3.1245    4.6021    1.4119 H   0  0  0  0  0  0
    3.7832    2.0922    0.9175 H   0  0  0  0  0  0
    2.8228    0.9444    1.8661 H   0  0  0  0  0  0
    1.2192   -3.0171    2.1139 C   0  0  0  0  0  0
    2.3728   -2.2721    3.2829 S   0  0  0  0  0  0
    1.1077   -1.2868    4.5579 S   0  0  0  0  0  0
    1.8103   -3.6446    1.4257 H   0  0  0  0  0  0
    0.6813   -2.2570    1.5228 H   0  0  0  0  0  0
    0.4782   -3.6557    2.6236 H   0  0  0  0  0  0
    1.0121   -0.1203    3.8851 H   0  0  0  0  0  0
  1  2  1  0  0  0
  2  3  2  0  0  0
  2  4  1  0  0  0
  1  5  1  0  0  0
  1  6  1  0  0  0
  1  7  1  0  0  0
  4  8  1  0  0  0
  4  9  1  0  0  0
 10 11  1  0  0  0
 11 12  1  0  0  0
 10 13  1  0  0  0
 10 14  1  0  0  0
 10 15  1  0  0  0
 12 16  1  0  0  0
M  END
$$$$
