


 15 14  0  0  1  0            999 V2000
    0.0000    0.0000    0.0000 F   0  0  0  0  0  0
    0.7300    0.7101    0.9276 C   0  0  0  0  0  0
    2.1216    0.8295    0.8154 C   0  0  0  0  0  0
    2.9356    1.4427    1.7826 C   0  0  0  0  0  0
    2.1947    2.0316    2.9070 C   0  0  0  0  0  0
    0.7654    1.9023    3.0000 C   0  0  0  0  0  0
    0.0495    1.3319    1.9612 C   0  0  0  0  0  0
    2.7452    2.6601    3.9777 F   0  0  0  0  0  0
    2.5612    0.4022   -0.0955 H   0  0  0  0  0  0
    4.0333    1.4445    1.7601 H   0  0  0  0  0  0
    0.2318    2.0396    3.9497 H   0  0  0  0  0  0
   -1.0329    1.2082    2.0976 H   0  0  0  0  0  0
   -3.9206    1.8997    2.1820 O   0  0  0  0  0  0
   -3.7179    1.0867    2.6981 H   0  0  0  0  0  0
   -4.7950    1.7194    1.7683 H   0  0  0  0  0  0
  1  2  1  0  0  0
  2  3  1  0  0  0
  3  4  2  0  0  0
  4  5  1  0  0  0
  5  6  2  0  0  0
  6  7  1  0  0  0
  2  7  2  0  0  0
  5  8  1  0  0  0
  3  9  1  0  0  0
  4 10  1  0  0  0
  6 11  1  0  0  0
  7 12  1  0  0  0
 13 14  1  0  0  0
 13 15  1  0  0  0
M  END
$$$$
