


 28 27  0  0  1  0            999 V2000
   -0.1607    0.8051    4.0579 C   0  0  0  0  0  0
   -0.0247   -0.3428    3.0514 C   0  0  0  0  0  0
    1.0213   -0.1043    1.9648 C   0  0  0  0  0  0
    2.7016    0.0078    2.6378 S   0  0  0  0  0  0
    2.4585    1.6936    3.7804 S   0  0  0  0  0  0
    1.1134    1.1044    4.8446 C   0  0  0  0  0  0
   -0.9616    0.5480    4.7776 H   0  0  0  0  0  0
   -0.4691    1.7255    3.5258 H   0  0  0  0  0  0
    0.2347   -1.2746    3.5899 H   0  0  0  0  0  0
   -1.0054   -0.4987    2.5621 H   0  0  0  0  0  0
    0.8095    0.8163    1.3876 H   0  0  0  0  0  0
    1.0464   -0.9504    1.2514 H   0  0  0  0  0  0
    0.9410    1.9164    5.5770 H   0  0  0  0  0  0
    1.4676    0.2168    5.4034 H   0  0  0  0  0  0
    2.4904    1.6417   -0.7379 C   0  0  0  0  0  0
    2.6121    2.8400    0.2029 C   0  0  0  0  0  0
    4.0433    3.0608    0.6872 C   0  0  0  0  0  0
    4.1649    4.2590    1.6280 C   0  0  0  0  0  0
    1.4475    1.5071   -1.0708 H   0  0  0  0  0  0
    2.8169    0.7224   -0.2233 H   0  0  0  0  0  0
    3.1266    1.7924   -1.6263 H   0  0  0  0  0  0
    2.2668    3.7539   -0.3176 H   0  0  0  0  0  0
    1.9577    2.6861    1.0825 H   0  0  0  0  0  0
    4.3885    2.1468    1.2077 H   0  0  0  0  0  0
    4.6976    3.2147   -0.1924 H   0  0  0  0  0  0
    3.5288    4.1083    2.5164 H   0  0  0  0  0  0
    3.8384    5.1784    1.1134 H   0  0  0  0  0  0
    5.2078    4.3937    1.9609 H   0  0  0  0  0  0
  1  2  1  0  0  0
  2  3  1  0  0  0
  3  4  1  0  0  0
  4  5  1  0  0  0
  5  6  1  0  0  0
  1  6  1  0  0  0
  1  7  1  0  0  0
  1  8  1  0  0  0
  2  9  1  0  0  0
  2 10  1  0  0  0
  3 11  1  0  0  0
  3 12  1  0  0  0
  6 13  1  0  0  0
  6 14  1  0  0  0
 15 16  1  0  0  0
 16 17  1  0  0  0
 17 18  1  0  0  0
 15 19  1  0  0  0
 15 20  1  0  0  0
 15 21  1  0  0  0
 16 22  1  0  0  0
 16 23  1  0  0  0
 17 24  1  0  0  0
 17 25  1  0  0  0
 18 26  1  0  0  0
 18 27  1  0  0  0
 18 28  1  0  0  0
M  END
$$$$
