


 26 25  0  0  1  0            999 V2000
    2.0678    0.4206    4.6367 C   0  0  0  0  0  0
    2.1159    0.0342    3.2352 N   0  0  0  0  0  0
    3.3653   -0.6545    2.9513 C   0  0  0  0  0  0
    0.9887   -0.8288    2.9179 C   0  0  0  0  0  0
    2.9136    1.0916    4.8624 H   0  0  0  0  0  0
    2.1223   -0.4525    5.3087 H   0  0  0  0  0  0
    1.1271    0.9606    4.8372 H   0  0  0  0  0  0
    3.4761   -1.5741    3.5502 H   0  0  0  0  0  0
    3.4019   -0.9242    1.8824 H   0  0  0  0  0  0
    4.2130    0.0149    3.1745 H   0  0  0  0  0  0
    0.9964   -1.7559    3.5153 H   0  0  0  0  0  0
    0.0464   -0.2906    3.1158 H   0  0  0  0  0  0
    1.0217   -1.0987    1.8489 H   0  0  0  0  0  0
    2.3472    2.9424    0.9301 O   0  0  0  0  0  0
    1.3276    3.8605    0.9144 C   0  0  0  0  0  0
    1.4513    4.9336    0.0314 C   0  0  0  0  0  0
    0.4472    5.8969   -0.0281 C   0  0  0  0  0  0
   -0.6812    5.7979    0.7876 C   0  0  0  0  0  0
   -0.7984    4.7233    1.6675 C   0  0  0  0  0  0
    0.2028    3.7541    1.7335 C   0  0  0  0  0  0
    2.1280    2.2453    1.5950 H   0  0  0  0  0  0
    2.3445    4.9980   -0.6040 H   0  0  0  0  0  0
    0.5503    6.7390   -0.7251 H   0  0  0  0  0  0
   -1.4702    6.5599    0.7370 H   0  0  0  0  0  0
   -1.6803    4.6323    2.3153 H   0  0  0  0  0  0
    0.1089    2.9081    2.4272 H   0  0  0  0  0  0
  1  2  1  0  0  0
  2  3  1  0  0  0
  2  4  1  0  0  0
  1  5  1  0  0  0
  1  6  1  0  0  0
  1  7  1  0  0  0
  3  8  1  0  0  0
  3  9  1  0  0  0
  3 10  1  0  0  0
  4 11  1  0  0  0
  4 12  1  0  0  0
  4 13  1  0  0  0
 14 15  1  0  0  0
 15 16  2  0  0  0
 16 17  1  0  0  0
 17 18  2  0  0  0
 18 19  1  0  0  0
 19 20  2  0  0  0
 15 20  1  0  0  0
 14 21  1  0  0  0
 16 22  1  0  0  0
 17 23  1  0  0  0
 18 24  1  0  0  0
 19 25  1  0  0  0
 20 26  1  0  0  0
M  END
$$$$
