


 22 22  0  0  1  0            999 V2000
    0.0000    0.0000    0.0000 C   0  0  0  0  0  0
    1.4736   -0.5505    0.3734 C   0  0  0  0  0  0
    1.9511   -1.7865   -0.8577 S   0  0  0  0  0  0
    0.7351   -1.2031   -2.3326 S   0  0  0  0  0  0
   -0.0766    0.1956   -1.5620 C   0  0  0  0  0  0
   -0.2870    0.9443    0.5015 H   0  0  0  0  0  0
   -0.7028   -0.7865    0.3359 H   0  0  0  0  0  0
    2.2273    0.2500    0.2445 H   0  0  0  0  0  0
    1.5831   -0.9541    1.3984 H   0  0  0  0  0  0
   -1.1060    0.4250   -1.8983 H   0  0  0  0  0  0
    0.5832    1.0099   -1.9184 H   0  0  0  0  0  0
   -1.4088    1.4041   -5.7827 C   0  0  0  0  0  0
   -1.8088    2.5860   -6.6636 C   0  0  0  0  0  0
   -3.0928    2.1416   -7.8191 S   0  0  0  0  0  0
   -3.2382    0.2437   -7.3355 S   0  0  0  0  0  0
   -2.4737    0.3473   -5.6497 C   0  0  0  0  0  0
   -1.0728    1.6680   -4.7614 H   0  0  0  0  0  0
   -0.5694    0.8923   -6.2914 H   0  0  0  0  0  0
   -2.3276    3.2684   -5.9631 H   0  0  0  0  0  0
   -1.0238    3.1693   -7.1824 H   0  0  0  0  0  0
   -2.0549   -0.6305   -5.3429 H   0  0  0  0  0  0
   -3.2995    0.5927   -4.9545 H   0  0  0  0  0  0
  1  2  1  0  0  0
  2  3  1  0  0  0
  3  4  1  0  0  0
  4  5  1  0  0  0
  1  5  1  0  0  0
  1  6  1  0  0  0
  1  7  1  0  0  0
  2  8  1  0  0  0
  2  9  1  0  0  0
  5 10  1  0  0  0
  5 11  1  0  0  0
 12 13  1  0  0  0
 13 14  1  0  0  0
 14 15  1  0  0  0
 15 16  1  0  0  0
 12 16  1  0  0  0
 12 17  1  0  0  0
 12 18  1  0  0  0
 13 19  1  0  0  0
 13 20  1  0  0  0
 16 21  1  0  0  0
 16 22  1  0  0  0
M  END
$$$$
