


 22 22  0  0  1  0            999 V2000
   -3.8719    0.5703    3.9803 C   0  0  0  0  0  0
   -5.3905    0.3063    3.6274 C   0  0  0  0  0  0
   -5.4299   -1.0686    2.4227 S   0  0  0  0  0  0
   -3.8425   -0.3511    1.4347 S   0  0  0  0  0  0
   -2.9079   -0.0101    2.9225 C   0  0  0  0  0  0
   -3.6033    0.0284    4.9074 H   0  0  0  0  0  0
   -3.6846    1.6475    4.1538 H   0  0  0  0  0  0
   -6.0165    0.0966    4.5160 H   0  0  0  0  0  0
   -5.8096    1.1984    3.1234 H   0  0  0  0  0  0
   -2.0571    0.6567    2.6837 H   0  0  0  0  0  0
   -2.4973   -0.9246    3.3922 H   0  0  0  0  0  0
    0.7607   -0.8613    4.4882 C   0  0  0  0  0  0
    1.8152   -1.2852    3.4365 C   0  0  0  0  0  0
    3.4717   -0.8630    4.0055 S   0  0  0  0  0  0
    2.9034    0.2794    5.5235 S   0  0  0  0  0  0
    1.1641    0.4746    5.0584 C   0  0  0  0  0  0
    0.8091   -1.6313    5.2821 H   0  0  0  0  0  0
   -0.2096   -0.9752    3.9676 H   0  0  0  0  0  0
    1.6333   -2.3057    3.0478 H   0  0  0  0  0  0
    1.5930   -0.5700    2.6213 H   0  0  0  0  0  0
    0.9390    1.2166    4.2683 H   0  0  0  0  0  0
    0.6517    0.8020    5.9834 H   0  0  0  0  0  0
  1  2  1  0  0  0
  2  3  1  0  0  0
  3  4  1  0  0  0
  4  5  1  0  0  0
  1  5  1  0  0  0
  1  6  1  0  0  0
  1  7  1  0  0  0
  2  8  1  0  0  0
  2  9  1  0  0  0
  5 10  1  0  0  0
  5 11  1  0  0  0
 12 13  1  0  0  0
 13 14  1  0  0  0
 14 15  1  0  0  0
 15 16  1  0  0  0
 12 16  1  0  0  0
 12 17  1  0  0  0
 12 18  1  0  0  0
 13 19  1  0  0  0
 13 20  1  0  0  0
 16 21  1  0  0  0
 16 22  1  0  0  0
M  END
$$$$
