


 21 20  0  0  1  0            999 V2000
   -0.2233   -0.3688    0.7949 C   0  0  0  0  0  0
    0.3468    0.1411    1.9839 O   0  0  0  0  0  0
   -0.6627    0.5986    2.8615 C   0  0  0  0  0  0
    0.6014   -0.7109    0.1472 H   0  0  0  0  0  0
   -0.7969    0.4036    0.2555 H   0  0  0  0  0  0
   -0.8893   -1.2242    0.9978 H   0  0  0  0  0  0
   -1.2552    1.4124    2.4105 H   0  0  0  0  0  0
   -1.3476   -0.2155    3.1528 H   0  0  0  0  0  0
   -0.1688    0.9845    3.7691 H   0  0  0  0  0  0
    0.9165    3.6125    0.4817 C   0  0  0  0  0  0
    2.2868    3.2473    0.9445 C   0  0  0  0  0  0
    3.4968    3.9095    0.8916 C   0  0  0  0  0  0
    4.5041    3.1618    1.4564 N   0  0  0  0  0  0
    3.9174    2.0456    1.8547 C   0  0  0  0  0  0
    2.5826    2.0556    1.5660 N   0  0  0  0  0  0
    1.9172    1.3073    1.7751 H   0  0  0  0  0  0
    0.9558    4.6138    0.0208 H   0  0  0  0  0  0
    0.2055    3.6408    1.3246 H   0  0  0  0  0  0
    0.5445    2.8943   -0.2683 H   0  0  0  0  0  0
    3.6878    4.8963    0.4698 H   0  0  0  0  0  0
    4.4031    1.2059    2.3516 H   0  0  0  0  0  0
  1  2  1  0  0  0
  2  3  1  0  0  0
  1  4  1  0  0  0
  1  5  1  0  0  0
  1  6  1  0  0  0
  3  7  1  0  0  0
  3  8  1  0  0  0
  3  9  1  0  0  0
 10 11  1  0  0  0
 11 12  2  0  0  0
 12 13  1  0  0  0
 13 14  2  0  0  0
 14 15  1  0  0  0
 15 16  1  0  0  0
 11 15  1  0  0  0
 10 17  1  0  0  0
 10 18  1  0  0  0
 10 19  1  0  0  0
 12 20  1  0  0  0
 14 21  1  0  0  0
M  END
$$$$
