


 22 20  0  0  1  0            999 V2000
   -0.6996    3.6410   -0.4860 C   0  0  0  0  0  0
    0.3128    2.6828    0.1021 C   0  0  0  0  0  0
    1.5200    2.8770    0.0678 O   0  0  0  0  0  0
   -0.2252    1.5687    0.6828 N   0  0  0  0  0  0
   -0.1697    4.5016   -0.9277 H   0  0  0  0  0  0
   -1.3876    4.0129    0.2918 H   0  0  0  0  0  0
   -1.2934    3.1505   -1.2756 H   0  0  0  0  0  0
   -1.2353    1.4090    0.7099 H   0  0  0  0  0  0
    0.4121    0.8844    1.0977 H   0  0  0  0  0  0
    1.6755   -0.7948    2.1098 O   0  0  0  0  0  0
    2.2283   -0.3422    3.3407 C   0  0  0  0  0  0
    2.7355    1.0936    3.2773 C   0  0  0  0  0  0
    3.9638    1.2539    2.3935 C   0  0  0  0  0  0
    3.7247    0.8815    1.0256 O   0  0  0  0  0  0
    2.3413   -0.5858    1.4218 H   0  0  0  0  0  0
    1.4155   -0.4259    4.0875 H   0  0  0  0  0  0
    3.0531   -1.0055    3.6651 H   0  0  0  0  0  0
    1.9217    1.7515    2.9165 H   0  0  0  0  0  0
    3.0065    1.4229    4.2989 H   0  0  0  0  0  0
    4.3537    2.2887    2.4439 H   0  0  0  0  0  0
    4.7679    0.5742    2.7352 H   0  0  0  0  0  0
    3.1207    1.5497    0.6396 H   0  0  0  0  0  0
  1  2  1  0  0  0
  2  3  2  0  0  0
  2  4  1  0  0  0
  1  5  1  0  0  0
  1  6  1  0  0  0
  1  7  1  0  0  0
  4  8  1  0  0  0
  4  9  1  0  0  0
 10 11  1  0  0  0
 11 12  1  0  0  0
 12 13  1  0  0  0
 13 14  1  0  0  0
 10 15  1  0  0  0
 11 16  1  0  0  0
 11 17  1  0  0  0
 12 18  1  0  0  0
 12 19  1  0  0  0
 13 20  1  0  0  0
 13 21  1  0  0  0
 14 22  1  0  0  0
M  END
$$$$
