


 21 20  0  0  1  0            999 V2000
   -0.5607    0.0715    0.7926 C   0  0  0  0  0  0
   -1.1193    1.0098    1.8162 N   0  0  0  0  0  0
   -0.3700    1.3418    2.4563 H   0  0  0  0  0  0
   -1.5481    1.8390    1.3576 H   0  0  0  0  0  0
   -1.8500    0.5375    2.3859 H   0  0  0  0  0  0
    0.2135    0.5771    0.1913 H   0  0  0  0  0  0
   -1.3592   -0.2776    0.1165 H   0  0  0  0  0  0
   -0.1074   -0.8058    1.2840 H   0  0  0  0  0  0
    2.1940    2.4119    3.5038 O   0  0  0  0  0  0
    2.7847    2.6719    2.2929 C   0  0  0  0  0  0
    2.1851    3.6405    1.4875 C   0  0  0  0  0  0
    2.7405    3.9464    0.2475 C   0  0  0  0  0  0
    3.8912    3.2926   -0.1961 C   0  0  0  0  0  0
    4.4852    2.3260    0.6136 C   0  0  0  0  0  0
    3.9354    2.0135    1.8570 C   0  0  0  0  0  0
    2.7197    1.7125    3.9627 H   0  0  0  0  0  0
    1.2803    4.1463    1.8498 H   0  0  0  0  0  0
    2.2640    4.7096   -0.3818 H   0  0  0  0  0  0
    4.3253    3.5373   -1.1745 H   0  0  0  0  0  0
    5.3907    1.8035    0.2779 H   0  0  0  0  0  0
    4.4045    1.2518    2.4937 H   0  0  0  0  0  0
  1  2  1  0  0  0
  2  3  1  0  0  0
  2  4  1  0  0  0
  2  5  1  0  0  0
  1  6  1  0  0  0
  1  7  1  0  0  0
  1  8  1  0  0  0
  9 10  1  0  0  0
 10 11  2  0  0  0
 11 12  1  0  0  0
 12 13  2  0  0  0
 13 14  1  0  0  0
 14 15  2  0  0  0
 10 15  1  0  0  0
  9 16  1  0  0  0
 11 17  1  0  0  0
 12 18  1  0  0  0
 13 19  1  0  0  0
 14 20  1  0  0  0
 15 21  1  0  0  0
M  CHG  1   2   1
M  END
$$$$
