


 14 12  0  0  1  0            999 V2000
   11.2860   -8.1459    4.7363 C   0  0  0  0  0  0
   12.4378   -6.7558    4.7773 S   0  0  0  0  0  0
   11.4326   -5.1076    5.6008 S   0  0  0  0  0  0
   10.4115   -8.1314    4.0642 H   0  0  0  0  0  0
   10.9319   -8.2871    5.7713 H   0  0  0  0  0  0
   11.9254   -9.0021    4.4633 H   0  0  0  0  0  0
   11.4473   -5.4266    6.9125 H   0  0  0  0  0  0
    9.6307   -4.2811    3.2632 C   0  0  0  0  0  0
   10.1221   -5.7844    2.3268 S   0  0  0  0  0  0
    8.3035   -6.5166    1.6909 S   0  0  0  0  0  0
    8.5421   -4.1078    3.3029 H   0  0  0  0  0  0
   10.1061   -3.4199    2.7644 H   0  0  0  0  0  0
   10.0145   -4.3458    4.2953 H   0  0  0  0  0  0
    7.8203   -5.7615    0.6814 H   0  0  0  0  0  0
  1  2  1  0  0  0
  2  3  1  0  0  0
  1  4  1  0  0  0
  1  5  1  0  0  0
  1  6  1  0  0  0
  3  7  1  0  0  0
  8  9  1  0  0  0
  9 10  1  0  0  0
  8 11  1  0  0  0
  8 12  1  0  0  0
  8 13  1  0  0  0
 10 14  1  0  0  0
M  END
$$$$
