


 14 12  0  0  1  0            999 V2000
    0.0000    0.0000    0.0000 C   0  0  0  0  0  0
   -0.0373   -0.8724   -1.5813 S   0  0  0  0  0  0
   -1.0905   -2.6478   -1.1486 S   0  0  0  0  0  0
    0.3876   -0.6897    0.7686 H   0  0  0  0  0  0
   -1.0049    0.3375    0.3048 H   0  0  0  0  0  0
    0.6653    0.8782   -0.0523 H   0  0  0  0  0  0
   -0.1264   -3.3589   -0.5262 H   0  0  0  0  0  0
    2.6629   -4.5383    3.0508 C   0  0  0  0  0  0
    0.8671   -4.8727    3.2091 S   0  0  0  0  0  0
    0.0768   -2.9324    3.1749 S   0  0  0  0  0  0
    2.9578   -3.9289    3.9216 H   0  0  0  0  0  0
    2.8071   -3.9384    2.1365 H   0  0  0  0  0  0
    3.3222   -5.4212    2.9998 H   0  0  0  0  0  0
   -0.4530   -2.8689    1.9348 H   0  0  0  0  0  0
  1  2  1  0  0  0
  2  3  1  0  0  0
  1  4  1  0  0  0
  1  5  1  0  0  0
  1  6  1  0  0  0
  3  7  1  0  0  0
  8  9  1  0  0  0
  9 10  1  0  0  0
  8 11  1  0  0  0
  8 12  1  0  0  0
  8 13  1  0  0  0
 10 14  1  0  0  0
M  END
$$$$
