


 14 12  0  0  1  0            999 V2000
    2.2919    3.5155   -5.4671 C   0  0  0  0  0  0
    3.4011    2.3935   -4.6013 S   0  0  0  0  0  0
    2.6083    2.4290   -2.6844 S   0  0  0  0  0  0
    2.2084    4.4912   -4.9595 H   0  0  0  0  0  0
    1.2850    3.0720   -5.5448 H   0  0  0  0  0  0
    2.6830    3.6808   -6.4851 H   0  0  0  0  0  0
    1.5933    1.5693   -2.9153 H   0  0  0  0  0  0
    1.9806    4.7009    0.9044 C   0  0  0  0  0  0
    0.5552    5.7910    0.7168 S   0  0  0  0  0  0
   -0.8638    4.3025    0.1813 S   0  0  0  0  0  0
    1.9086    4.5678    1.9969 H   0  0  0  0  0  0
    2.9962    5.0544    0.6592 H   0  0  0  0  0  0
    1.8218    3.7229    0.4196 H   0  0  0  0  0  0
   -0.6869    4.3669   -1.1555 H   0  0  0  0  0  0
  1  2  1  0  0  0
  2  3  1  0  0  0
  1  4  1  0  0  0
  1  5  1  0  0  0
  1  6  1  0  0  0
  3  7  1  0  0  0
  8  9  1  0  0  0
  9 10  1  0  0  0
  8 11  1  0  0  0
  8 12  1  0  0  0
  8 13  1  0  0  0
 10 14  1  0  0  0
M  END
$$$$
