


 14 12  0  0  1  0            999 V2000
   -2.7210   -0.8511   -1.8596 C   0  0  0  0  0  0
   -2.5469   -2.3726   -0.9316 S   0  0  0  0  0  0
   -1.9526   -3.6774   -2.3656 S   0  0  0  0  0  0
   -1.8586   -0.8034   -2.5457 H   0  0  0  0  0  0
   -2.6742    0.0125   -1.1751 H   0  0  0  0  0  0
   -3.6475   -0.7794   -2.4537 H   0  0  0  0  0  0
   -3.1492   -3.7818   -2.9819 H   0  0  0  0  0  0
    2.6703    3.8407    2.0495 C   0  0  0  0  0  0
    1.4079    5.1271    1.9677 S   0  0  0  0  0  0
   -0.1778    4.1535    1.0114 S   0  0  0  0  0  0
    3.6430    4.2923    2.3075 H   0  0  0  0  0  0
    2.7764    3.2984    1.0948 H   0  0  0  0  0  0
    2.3983    3.1174    2.8366 H   0  0  0  0  0  0
    0.5314    3.6329   -0.0126 H   0  0  0  0  0  0
  1  2  1  0  0  0
  2  3  1  0  0  0
  1  4  1  0  0  0
  1  5  1  0  0  0
  1  6  1  0  0  0
  3  7  1  0  0  0
  8  9  1  0  0  0
  9 10  1  0  0  0
  8 11  1  0  0  0
  8 12  1  0  0  0
  8 13  1  0  0  0
 10 14  1  0  0  0
M  END
$$$$
