


 14 12  0  0  1  0            999 V2000
    6.0752   -0.8320   -1.6796 C   0  0  0  0  0  0
    4.2775   -0.6358   -1.7083 S   0  0  0  0  0  0
    3.6771   -1.7514   -0.0725 S   0  0  0  0  0  0
    6.4289   -1.8727   -1.7719 H   0  0  0  0  0  0
    6.4038   -0.4339   -0.7049 H   0  0  0  0  0  0
    6.5387   -0.2306   -2.4796 H   0  0  0  0  0  0
    4.1022   -0.9912    0.9589 H   0  0  0  0  0  0
    1.9806    4.7009    0.9044 C   0  0  0  0  0  0
    0.5552    5.7910    0.7168 S   0  0  0  0  0  0
   -0.8638    4.3025    0.1813 S   0  0  0  0  0  0
    1.9086    4.5678    1.9969 H   0  0  0  0  0  0
    2.9962    5.0544    0.6592 H   0  0  0  0  0  0
    1.8218    3.7229    0.4196 H   0  0  0  0  0  0
   -0.6869    4.3669   -1.1555 H   0  0  0  0  0  0
  1  2  1  0  0  0
  2  3  1  0  0  0
  1  4  1  0  0  0
  1  5  1  0  0  0
  1  6  1  0  0  0
  3  7  1  0  0  0
  8  9  1  0  0  0
  9 10  1  0  0  0
  8 11  1  0  0  0
  8 12  1  0  0  0
  8 13  1  0  0  0
 10 14  1  0  0  0
M  END
$$$$
