


 14 12  0  0  1  0            999 V2000
    0.0000    0.0000    0.0000 C   0  0  0  0  0  0
   -1.4855   -0.6891   -0.7315 S   0  0  0  0  0  0
   -1.9758   -1.9416    0.7971 S   0  0  0  0  0  0
   -0.1741    0.8697    0.6556 H   0  0  0  0  0  0
    0.5261    0.3427   -0.9068 H   0  0  0  0  0  0
    0.6469   -0.7177    0.5320 H   0  0  0  0  0  0
   -1.0108   -2.8732    0.6435 H   0  0  0  0  0  0
   -1.9544    4.0332    0.5034 C   0  0  0  0  0  0
   -1.8142    4.3675   -1.2381 S   0  0  0  0  0  0
   -0.8457    2.6328   -2.0779 S   0  0  0  0  0  0
   -1.5387    3.0584    0.8092 H   0  0  0  0  0  0
   -3.0431    4.0224    0.6802 H   0  0  0  0  0  0
   -1.5038    4.8203    1.1310 H   0  0  0  0  0  0
   -1.8699    1.7533   -2.0769 H   0  0  0  0  0  0
  1  2  1  0  0  0
  2  3  1  0  0  0
  1  4  1  0  0  0
  1  5  1  0  0  0
  1  6  1  0  0  0
  3  7  1  0  0  0
  8  9  1  0  0  0
  9 10  1  0  0  0
  8 11  1  0  0  0
  8 12  1  0  0  0
  8 13  1  0  0  0
 10 14  1  0  0  0
M  END
$$$$
