


 24 22  0  0  1  0            999 V2000
    2.9744    0.2378    3.8639 C   0  0  0  0  0  0
    3.6886    1.1675    2.8834 C   0  0  0  0  0  0
    2.7819    1.6223    1.7420 C   0  0  0  0  0  0
    3.4961    2.5520    0.7615 C   0  0  0  0  0  0
    3.6527   -0.0738    4.6759 H   0  0  0  0  0  0
    2.6175   -0.6638    3.3382 H   0  0  0  0  0  0
    2.1062    0.7526    4.3087 H   0  0  0  0  0  0
    4.0568    2.0607    3.4239 H   0  0  0  0  0  0
    4.5670    0.6473    2.4553 H   0  0  0  0  0  0
    2.4137    0.7291    1.2016 H   0  0  0  0  0  0
    1.9035    2.1425    2.1701 H   0  0  0  0  0  0
    4.3643    2.0373    0.3167 H   0  0  0  0  0  0
    3.8531    3.4536    1.2872 H   0  0  0  0  0  0
    2.8178    2.8636   -0.0505 H   0  0  0  0  0  0
   -4.1490    0.7812   -0.6839 N   0  0  0  0  0  0
   -4.7379   -0.0320    0.1924 C   0  0  0  0  0  0
   -4.0507   -0.4988    1.2344 N   0  0  0  0  0  0
   -4.5028   -1.1230    1.9071 H   0  0  0  0  0  0
   -3.0711   -0.2329    1.3616 H   0  0  0  0  0  0
   -6.0140   -0.3783    0.0266 N   0  0  0  0  0  0
   -3.1694    1.0471   -0.5566 H   0  0  0  0  0  0
   -4.6765    1.1396   -1.4838 H   0  0  0  0  0  0
   -6.5416   -0.0200   -0.7733 H   0  0  0  0  0  0
   -6.4661   -1.0026    0.6993 H   0  0  0  0  0  0
  1  2  1  0  0  0
  2  3  1  0  0  0
  3  4  1  0  0  0
  1  5  1  0  0  0
  1  6  1  0  0  0
  1  7  1  0  0  0
  2  8  1  0  0  0
  2  9  1  0  0  0
  3 10  1  0  0  0
  3 11  1  0  0  0
  4 12  1  0  0  0
  4 13  1  0  0  0
  4 14  1  0  0  0
 15 16  2  0  0  0
 16 17  1  0  0  0
 17 18  1  0  0  0
 17 19  1  0  0  0
 16 20  1  0  0  0
 15 21  1  0  0  0
 15 22  1  0  0  0
 20 23  1  0  0  0
 20 24  1  0  0  0
M  CHG  1  15   1
M  END
$$$$
