


 20 18  0  0  1  0            999 V2000
    0.0000    0.0000    0.0000 C   0  0  0  0  0  0
    0.3659    0.9269   -1.0890 N   0  0  0  0  0  0
   -0.5566    1.0159   -2.1855 C   0  0  0  0  0  0
   -0.0040    1.9578   -3.2757 C   0  0  0  0  0  0
   -0.9229    2.1116   -4.3332 O   0  0  0  0  0  0
   -0.6718    3.2528   -5.1306 C   0  0  0  0  0  0
    0.1427   -1.0644   -0.2517 H   0  0  0  0  0  0
   -1.0464    0.1498    0.3149 H   0  0  0  0  0  0
    0.6616    0.2534    0.8454 H   0  0  0  0  0  0
    1.3227    0.6315   -1.3216 H   0  0  0  0  0  0
   -0.8471    0.0818   -2.7037 H   0  0  0  0  0  0
   -1.4728    1.4569   -1.7479 H   0  0  0  0  0  0
    0.9432    1.6056   -3.7276 H   0  0  0  0  0  0
    0.1974    2.9305   -2.7871 H   0  0  0  0  0  0
    0.1946    3.0602   -5.7856 H   0  0  0  0  0  0
   -0.5092    4.2082   -4.6039 H   0  0  0  0  0  0
   -1.5737    3.3463   -5.7586 H   0  0  0  0  0  0
   -2.7864    3.5657   -8.0724 O   0  0  0  0  0  0
   -2.6742    3.9390   -7.1689 H   0  0  0  0  0  0
   -1.9068    3.1845   -8.2943 H   0  0  0  0  0  0
  1  2  1  0  0  0
  2  3  1  0  0  0
  3  4  1  0  0  0
  4  5  1  0  0  0
  5  6  1  0  0  0
  1  7  1  0  0  0
  1  8  1  0  0  0
  1  9  1  0  0  0
  2 10  1  0  0  0
  3 11  1  0  0  0
  3 12  1  0  0  0
  4 13  1  0  0  0
  4 14  1  0  0  0
  6 15  1  0  0  0
  6 16  1  0  0  0
  6 17  1  0  0  0
 18 19  1  0  0  0
 18 20  1  0  0  0
M  END
$$$$
