


  8  6  0  0  1  0            999 V2000
    0.0000    0.0000    0.0000 F   0  0  0  0  0  0
   -0.8578    0.2182    1.0373 C   0  0  0  0  0  0
   -0.9177   -0.9043    1.7000 F   0  0  0  0  0  0
   -0.4093    1.1186    1.8987 F   0  0  0  0  0  0
   -1.8616    0.5690    0.7223 H   0  0  0  0  0  0
   -1.4581    0.0260   -1.5001 O   0  0  0  0  0  0
   -1.7076   -0.4106   -2.3459 H   0  0  0  0  0  0
   -2.2223   -0.1371   -0.9020 H   0  0  0  0  0  0
  1  2  1  0  0  0
  2  3  1  0  0  0
  2  4  1  0  0  0
  2  5  1  0  0  0
  6  7  1  0  0  0
  6  8  1  0  0  0
M  END
$$$$
