


 22 20  0  0  1  0            999 V2000
   -3.6617    1.3795    5.1919 C   0  0  0  0  0  0
   -2.8301    1.5581    6.3253 O   0  0  0  0  0  0
   -3.1742    2.0195    7.4890 C   0  0  0  0  0  0
   -4.3577    2.0988    7.8590 O   0  0  0  0  0  0
   -2.0138    2.3097    8.4288 C   0  0  0  0  0  0
   -3.1968    0.9518    4.2878 H   0  0  0  0  0  0
   -4.1467    2.3324    4.9209 H   0  0  0  0  0  0
   -4.4352    0.6814    5.5536 H   0  0  0  0  0  0
   -1.0758    1.8655    8.0554 H   0  0  0  0  0  0
   -2.2033    1.9278    9.4461 H   0  0  0  0  0  0
   -1.8881    3.4042    8.4816 H   0  0  0  0  0  0
    0.6076   -4.4816   -4.5809 C   0  0  0  0  0  0
   -0.4849   -4.1047   -3.8230 O   0  0  0  0  0  0
   -0.1948   -3.3892   -2.6799 C   0  0  0  0  0  0
    0.6651   -2.6344   -2.5148 O   0  0  0  0  0  0
   -1.2849   -3.7135   -1.6730 C   0  0  0  0  0  0
    0.4734   -3.8760   -5.4929 H   0  0  0  0  0  0
    0.5161   -5.5474   -4.8496 H   0  0  0  0  0  0
    1.6224   -4.3040   -4.1868 H   0  0  0  0  0  0
   -2.2427   -3.3978   -2.1198 H   0  0  0  0  0  0
   -1.1427   -3.1690   -0.7244 H   0  0  0  0  0  0
   -1.3377   -4.7933   -1.4544 H   0  0  0  0  0  0
  1  2  1  0  0  0
  2  3  1  0  0  0
  3  4  2  0  0  0
  3  5  1  0  0  0
  1  6  1  0  0  0
  1  7  1  0  0  0
  1  8  1  0  0  0
  5  9  1  0  0  0
  5 10  1  0  0  0
  5 11  1  0  0  0
 12 13  1  0  0  0
 13 14  1  0  0  0
 14 15  2  0  0  0
 14 16  1  0  0  0
 12 17  1  0  0  0
 12 18  1  0  0  0
 12 19  1  0  0  0
 16 20  1  0  0  0
 16 21  1  0  0  0
 16 22  1  0  0  0
M  END
$$$$
