


 22 20  0  0  1  0            999 V2000
  -12.5105    8.4995    2.6746 C   0  0  0  0  0  0
  -11.7736    9.5937    2.1860 O   0  0  0  0  0  0
  -11.1362   10.3722    3.0391 C   0  0  0  0  0  0
  -11.3292   10.4238    4.2515 O   0  0  0  0  0  0
  -10.0406   11.1513    2.3701 C   0  0  0  0  0  0
  -12.2563    8.2955    3.7284 H   0  0  0  0  0  0
  -12.3635    7.5746    2.0919 H   0  0  0  0  0  0
  -13.5742    8.7855    2.6183 H   0  0  0  0  0  0
  -10.1411   10.9473    1.2908 H   0  0  0  0  0  0
   -9.1539   10.6152    2.7484 H   0  0  0  0  0  0
   -9.8833   12.2340    2.5103 H   0  0  0  0  0  0
   -8.8538    8.0947    3.2853 C   0  0  0  0  0  0
   -9.5200    8.5504    2.1470 O   0  0  0  0  0  0
   -8.9899    8.3291    0.8977 C   0  0  0  0  0  0
   -7.9630    7.6516    0.5997 O   0  0  0  0  0  0
   -9.7764    8.9956   -0.1646 C   0  0  0  0  0  0
   -9.5731    8.1535    4.1194 H   0  0  0  0  0  0
   -8.0048    8.7637    3.5051 H   0  0  0  0  0  0
   -8.4779    7.0599    3.2172 H   0  0  0  0  0  0
  -10.8199    8.9321    0.1870 H   0  0  0  0  0  0
   -9.6913    8.4429   -1.1153 H   0  0  0  0  0  0
   -9.5316   10.0549   -0.3504 H   0  0  0  0  0  0
  1  2  1  0  0  0
  2  3  1  0  0  0
  3  4  2  0  0  0
  3  5  1  0  0  0
  1  6  1  0  0  0
  1  7  1  0  0  0
  1  8  1  0  0  0
  5  9  1  0  0  0
  5 10  1  0  0  0
  5 11  1  0  0  0
 12 13  1  0  0  0
 13 14  1  0  0  0
 14 15  2  0  0  0
 14 16  1  0  0  0
 12 17  1  0  0  0
 12 18  1  0  0  0
 12 19  1  0  0  0
 16 20  1  0  0  0
 16 21  1  0  0  0
 16 22  1  0  0  0
M  END
$$$$
