


 22 20  0  0  1  0            999 V2000
    0.8022   -0.2657    1.1221 C   0  0  0  0  0  0
    1.8141    0.2467    0.2513 O   0  0  0  0  0  0
    1.5904    1.5123   -0.1780 C   0  0  0  0  0  0
    0.6195    2.1629    0.1424 O   0  0  0  0  0  0
    2.6987    1.9669   -1.0836 C   0  0  0  0  0  0
    1.1005   -1.2916    1.3961 H   0  0  0  0  0  0
   -0.1839   -0.3058    0.6295 H   0  0  0  0  0  0
    0.7106    0.3323    2.0444 H   0  0  0  0  0  0
    3.6644    1.9469   -0.5512 H   0  0  0  0  0  0
    2.7698    1.3090   -1.9661 H   0  0  0  0  0  0
    2.5078    2.9974   -1.4275 H   0  0  0  0  0  0
    3.5111    0.8975    3.3644 C   0  0  0  0  0  0
    2.4927    1.8969    3.4592 O   0  0  0  0  0  0
    2.7074    2.9857    2.6817 C   0  0  0  0  0  0
    3.6757    3.1117    1.9640 O   0  0  0  0  0  0
    1.5929    3.9791    2.8440 C   0  0  0  0  0  0
    3.2198    0.0742    4.0382 H   0  0  0  0  0  0
    4.4955    1.2806    3.6821 H   0  0  0  0  0  0
    3.6028    0.4983    2.3403 H   0  0  0  0  0  0
    0.6294    3.5287    2.5517 H   0  0  0  0  0  0
    1.5222    4.3110    3.8934 H   0  0  0  0  0  0
    1.7764    4.8611    2.2076 H   0  0  0  0  0  0
  1  2  1  0  0  0
  2  3  1  0  0  0
  3  4  2  0  0  0
  3  5  1  0  0  0
  1  6  1  0  0  0
  1  7  1  0  0  0
  1  8  1  0  0  0
  5  9  1  0  0  0
  5 10  1  0  0  0
  5 11  1  0  0  0
 12 13  1  0  0  0
 13 14  1  0  0  0
 14 15  2  0  0  0
 14 16  1  0  0  0
 12 17  1  0  0  0
 12 18  1  0  0  0
 12 19  1  0  0  0
 16 20  1  0  0  0
 16 21  1  0  0  0
 16 22  1  0  0  0
M  END
$$$$
