


 22 20  0  0  1  0            999 V2000
   -1.1086    0.4708    4.3949 C   0  0  0  0  0  0
   -0.1480    1.2566    3.6951 O   0  0  0  0  0  0
    1.0765    0.6465    3.4436 C   0  0  0  0  0  0
    1.3141   -0.5297    3.5442 O   0  0  0  0  0  0
    2.0927    1.6564    2.9436 C   0  0  0  0  0  0
   -1.0564    0.6867    5.4753 H   0  0  0  0  0  0
   -1.0265   -0.6195    4.2497 H   0  0  0  0  0  0
   -2.0899    0.8033    4.0166 H   0  0  0  0  0  0
    2.3381    2.3884    3.7313 H   0  0  0  0  0  0
    1.6774    2.1981    2.0771 H   0  0  0  0  0  0
    3.0221    1.1517    2.6304 H   0  0  0  0  0  0
   -3.1408    1.7284    1.5468 C   0  0  0  0  0  0
   -3.0667    0.4363    2.0775 O   0  0  0  0  0  0
   -3.8810   -0.5053    1.9287 C   0  0  0  0  0  0
   -4.7893   -0.4425    1.1319 O   0  0  0  0  0  0
   -3.6912   -1.6769    2.9353 C   0  0  0  0  0  0
   -2.1830    2.2598    1.6769 H   0  0  0  0  0  0
   -3.9357    2.3091    2.0443 H   0  0  0  0  0  0
   -3.3683    1.6721    0.4690 H   0  0  0  0  0  0
   -4.7117   -1.9325    3.2670 H   0  0  0  0  0  0
   -3.1086   -1.3470    3.8119 H   0  0  0  0  0  0
   -3.2191   -2.5831    2.5199 H   0  0  0  0  0  0
  1  2  1  0  0  0
  2  3  1  0  0  0
  3  4  2  0  0  0
  3  5  1  0  0  0
  1  6  1  0  0  0
  1  7  1  0  0  0
  1  8  1  0  0  0
  5  9  1  0  0  0
  5 10  1  0  0  0
  5 11  1  0  0  0
 12 13  1  0  0  0
 13 14  1  0  0  0
 14 15  2  0  0  0
 14 16  1  0  0  0
 12 17  1  0  0  0
 12 18  1  0  0  0
 12 19  1  0  0  0
 16 20  1  0  0  0
 16 21  1  0  0  0
 16 22  1  0  0  0
M  END
$$$$
