


  9  7  0  0  1  0            999 V2000
    0.0000    0.0000    0.0000 C   0  0  0  0  0  0
    0.2609   -1.5908    0.8437 S   0  0  0  0  0  0
   -0.8327   -0.1427   -0.7092 H   0  0  0  0  0  0
    0.8664    0.4028   -0.5511 H   0  0  0  0  0  0
   -0.3076    0.7379    0.7599 H   0  0  0  0  0  0
    1.5422   -1.2217    1.0544 H   0  0  0  0  0  0
    0.7347    1.4940    5.3101 O   0  0  0  0  0  0
    0.5019    0.5937    4.9884 H   0  0  0  0  0  0
    0.6261    1.4442    6.2868 H   0  0  0  0  0  0
  1  2  1  0  0  0
  1  3  1  0  0  0
  1  4  1  0  0  0
  1  5  1  0  0  0
  2  6  1  0  0  0
  7  8  1  0  0  0
  7  9  1  0  0  0
M  END
$$$$
