


  7  5  0  0  1  0            999 V2000
    1.3917    5.8596   -3.6980 O   0  0  0  0  0  0
    0.8200    5.7658   -4.4934 H   0  0  0  0  0  0
    1.2063    5.0549   -3.1630 H   0  0  0  0  0  0
    0.0000    0.0000    0.0000 O   0  0  0  0  0  0
   -0.0660    1.2250   -0.3317 C   0  0  0  0  0  0
   -0.0934    1.6458   -1.5277 O   0  0  0  0  0  0
   -0.2854    1.9572    0.4829 H   0  0  0  0  0  0
  1  2  1  0  0  0
  1  3  1  0  0  0
  4  5  1  0  0  0
  5  6  2  0  0  0
  5  7  1  0  0  0
M  CHG  1   4  -1
M  END
$$$$
