


  7  5  0  0  1  0            999 V2000
   -2.8351    2.2646    3.2797 O   0  0  0  0  0  0
   -2.4212    1.7632    2.5412 H   0  0  0  0  0  0
   -2.2162    3.0102    3.4509 H   0  0  0  0  0  0
    0.0000    0.0000    0.0000 O   0  0  0  0  0  0
    1.0531   -0.3038   -0.6057 C   0  0  0  0  0  0
    1.2061   -0.2886   -1.8708 O   0  0  0  0  0  0
    2.0002   -0.3592   -0.0161 H   0  0  0  0  0  0
  1  2  1  0  0  0
  1  3  1  0  0  0
  4  5  1  0  0  0
  5  6  2  0  0  0
  5  7  1  0  0  0
M  CHG  1   4  -1
M  END
$$$$
