


  7  5  0  0  1  0            999 V2000
   -0.8184   -3.0747   -5.6317 O   0  0  0  0  0  0
   -1.5279   -3.6964   -5.3519 H   0  0  0  0  0  0
   -0.8173   -2.3729   -4.9420 H   0  0  0  0  0  0
    0.0000    0.0000    0.0000 O   0  0  0  0  0  0
   -0.7632    0.5703   -0.7509 C   0  0  0  0  0  0
   -0.4139    0.9981   -1.8662 O   0  0  0  0  0  0
   -1.8064    0.8279   -0.4458 H   0  0  0  0  0  0
  1  2  1  0  0  0
  1  3  1  0  0  0
  4  5  1  0  0  0
  5  6  2  0  0  0
  5  7  1  0  0  0
M  CHG  1   4  -1
M  END
$$$$
