


  7  5  0  0  1  0            999 V2000
   -1.7420   -1.3173   -4.7013 O   0  0  0  0  0  0
   -1.5645   -1.5372   -5.6439 H   0  0  0  0  0  0
   -2.2939   -0.5034   -4.7363 H   0  0  0  0  0  0
    0.0000    0.0000    0.0000 O   0  0  0  0  0  0
    0.5098   -1.1256    0.0069 C   0  0  0  0  0  0
    0.5982   -1.7842   -1.0605 O   0  0  0  0  0  0
    0.9453   -1.4292    0.9896 H   0  0  0  0  0  0
  1  2  1  0  0  0
  1  3  1  0  0  0
  4  5  1  0  0  0
  5  6  2  0  0  0
  5  7  1  0  0  0
M  CHG  1   4  -1
M  END
$$$$
