


  7  5  0  0  1  0            999 V2000
   -2.5955   -0.1239    2.5474 O   0  0  0  0  0  0
   -1.8031   -0.2794    1.9851 H   0  0  0  0  0  0
   -2.3421   -0.4678    3.4338 H   0  0  0  0  0  0
    0.0000    0.0000    0.0000 O   0  0  0  0  0  0
   -0.0660    1.2250   -0.3317 C   0  0  0  0  0  0
   -0.0934    1.6458   -1.5277 O   0  0  0  0  0  0
   -0.2854    1.9572    0.4829 H   0  0  0  0  0  0
  1  2  1  0  0  0
  1  3  1  0  0  0
  4  5  1  0  0  0
  5  6  2  0  0  0
  5  7  1  0  0  0
M  CHG  1   4  -1
M  END
$$$$
