


  7  5  0  0  1  0            999 V2000
    1.9251   -1.7939   -0.5815 O   0  0  0  0  0  0
    1.2386   -1.1180   -0.3815 H   0  0  0  0  0  0
    2.6784   -1.2804   -0.9518 H   0  0  0  0  0  0
    0.0000    0.0000    0.0000 O   0  0  0  0  0  0
    0.1290    1.0748    0.6314 C   0  0  0  0  0  0
    1.2498    1.6253    0.7642 O   0  0  0  0  0  0
   -0.7656    1.6549    0.9643 H   0  0  0  0  0  0
  1  2  1  0  0  0
  1  3  1  0  0  0
  4  5  1  0  0  0
  5  6  2  0  0  0
  5  7  1  0  0  0
M  CHG  1   4  -1
M  END
$$$$
