


  7  5  0  0  1  0            999 V2000
   -4.3237   -2.0455    3.9040 O   0  0  0  0  0  0
   -3.5470   -1.7496    3.3773 H   0  0  0  0  0  0
   -3.9650   -2.7329    4.5099 H   0  0  0  0  0  0
    0.0000    0.0000    0.0000 O   0  0  0  0  0  0
    1.0440   -0.1462    0.6932 C   0  0  0  0  0  0
    1.7254   -1.2095    0.6710 O   0  0  0  0  0  0
    1.4391    0.7625    1.2089 H   0  0  0  0  0  0
  1  2  1  0  0  0
  1  3  1  0  0  0
  4  5  1  0  0  0
  5  6  2  0  0  0
  5  7  1  0  0  0
M  CHG  1   4  -1
M  END
$$$$
