


  7  5  0  0  1  0            999 V2000
    3.1214   -1.5867    5.1431 O   0  0  0  0  0  0
    2.6600   -1.1991    5.9209 H   0  0  0  0  0  0
    2.5236   -1.4033    4.3833 H   0  0  0  0  0  0
    0.0000    0.0000    0.0000 O   0  0  0  0  0  0
   -0.3777   -1.1199   -0.3991 C   0  0  0  0  0  0
    0.0663   -1.7146   -1.3215 O   0  0  0  0  0  0
   -1.3062   -1.5709    0.0277 H   0  0  0  0  0  0
  1  2  1  0  0  0
  1  3  1  0  0  0
  4  5  1  0  0  0
  5  6  2  0  0  0
  5  7  1  0  0  0
M  CHG  1   4  -1
M  END
$$$$
