


  7  5  0  0  1  0            999 V2000
   -0.8735    0.8843   -4.9171 O   0  0  0  0  0  0
   -1.8562    0.8436   -4.9489 H   0  0  0  0  0  0
   -0.6494    0.7325   -3.9711 H   0  0  0  0  0  0
    0.0000    0.0000    0.0000 O   0  0  0  0  0  0
   -0.0675   -0.8449    0.9571 C   0  0  0  0  0  0
    0.1538   -0.5717    2.1566 O   0  0  0  0  0  0
    0.0488   -1.9103    0.6421 H   0  0  0  0  0  0
  1  2  1  0  0  0
  1  3  1  0  0  0
  4  5  1  0  0  0
  5  6  2  0  0  0
  5  7  1  0  0  0
M  CHG  1   4  -1
M  END
$$$$
