


  7  5  0  0  1  0            999 V2000
   -0.9978    3.6468    0.2025 O   0  0  0  0  0  0
   -1.7945    3.8041    0.7582 H   0  0  0  0  0  0
   -0.8236    2.6820    0.2862 H   0  0  0  0  0  0
    0.0000    0.0000    0.0000 O   0  0  0  0  0  0
    1.1895   -0.1946   -0.3486 C   0  0  0  0  0  0
    1.6824   -1.1288   -0.9334 O   0  0  0  0  0  0
    1.7970    0.7406   -0.2860 H   0  0  0  0  0  0
  1  2  1  0  0  0
  1  3  1  0  0  0
  4  5  1  0  0  0
  5  6  2  0  0  0
  5  7  1  0  0  0
M  CHG  1   4  -1
M  END
$$$$
