


  7  5  0  0  1  0            999 V2000
   -0.2848    2.2187    2.5797 O   0  0  0  0  0  0
   -1.0787    2.0439    3.1342 H   0  0  0  0  0  0
   -0.2033    1.4238    2.0055 H   0  0  0  0  0  0
    0.0000    0.0000    0.0000 O   0  0  0  0  0  0
    0.0408   -1.1821   -0.4390 C   0  0  0  0  0  0
   -0.4498   -2.1812    0.1079 O   0  0  0  0  0  0
    0.7504   -1.2692   -1.2972 H   0  0  0  0  0  0
  1  2  1  0  0  0
  1  3  1  0  0  0
  4  5  1  0  0  0
  5  6  2  0  0  0
  5  7  1  0  0  0
M  CHG  1   4  -1
M  END
$$$$
