


  7  5  0  0  1  0            999 V2000
    1.7060   -0.2224    2.7161 O   0  0  0  0  0  0
    2.4604    0.2828    2.3367 H   0  0  0  0  0  0
    1.0661   -0.3076    1.9734 H   0  0  0  0  0  0
    0.0000    0.0000    0.0000 O   0  0  0  0  0  0
    0.9146    0.0528   -0.8929 C   0  0  0  0  0  0
    1.6515   -0.9194   -1.1557 O   0  0  0  0  0  0
    1.2052    0.9577   -1.4797 H   0  0  0  0  0  0
  1  2  1  0  0  0
  1  3  1  0  0  0
  4  5  1  0  0  0
  5  6  2  0  0  0
  5  7  1  0  0  0
M  CHG  1   4  -1
M  END
$$$$
