


 25 23  0  0  1  0            999 V2000
    1.3560   -0.7967    2.2497 C   0  0  0  0  0  0
    0.3368    0.0862    2.7953 N   0  0  0  0  0  0
   -0.9658   -0.2586    2.2472 C   0  0  0  0  0  0
    0.3105   -0.0204    4.2458 C   0  0  0  0  0  0
    1.3830   -0.6929    1.1520 H   0  0  0  0  0  0
    1.1637   -1.8539    2.4985 H   0  0  0  0  0  0
    2.3423   -0.5138    2.6543 H   0  0  0  0  0  0
   -1.2587   -1.2925    2.4959 H   0  0  0  0  0  0
   -1.7280    0.4295    2.6499 H   0  0  0  0  0  0
   -0.9421   -0.1540    1.1495 H   0  0  0  0  0  0
    0.0729   -1.0440    4.5811 H   0  0  0  0  0  0
    1.2953    0.2635    4.6533 H   0  0  0  0  0  0
   -0.4499    0.6680    4.6514 H   0  0  0  0  0  0
    1.5854    5.1614    3.0361 C   0  0  0  0  0  0
    1.3954    4.3210    1.8699 N   0  0  0  0  0  0
    1.5468    4.8236    0.6132 C   0  0  0  0  0  0
    1.8475    5.9984    0.4232 O   0  0  0  0  0  0
    1.3179    3.8326   -0.5084 C   0  0  0  0  0  0
    1.4157    4.5595    3.9447 H   0  0  0  0  0  0
    0.8746    6.0048    3.0349 H   0  0  0  0  0  0
    2.6111    5.5658    3.0684 H   0  0  0  0  0  0
    1.1442    3.3362    1.9870 H   0  0  0  0  0  0
    0.2915    3.4300   -0.4770 H   0  0  0  0  0  0
    1.4659    4.3441   -1.4743 H   0  0  0  0  0  0
    2.0280    2.9911   -0.4435 H   0  0  0  0  0  0
  1  2  1  0  0  0
  2  3  1  0  0  0
  2  4  1  0  0  0
  1  5  1  0  0  0
  1  6  1  0  0  0
  1  7  1  0  0  0
  3  8  1  0  0  0
  3  9  1  0  0  0
  3 10  1  0  0  0
  4 11  1  0  0  0
  4 12  1  0  0  0
  4 13  1  0  0  0
 14 15  1  0  0  0
 15 16  1  0  0  0
 16 17  2  0  0  0
 16 18  1  0  0  0
 14 19  1  0  0  0
 14 20  1  0  0  0
 14 21  1  0  0  0
 15 22  1  0  0  0
 18 23  1  0  0  0
 18 24  1  0  0  0
 18 25  1  0  0  0
M  END
$$$$
