


 20 20  0  0  1  0            999 V2000
    0.8146    6.3201   14.9935 C   0  0  0  0  0  0
    0.8388    7.4967   15.7751 C   0  0  0  0  0  0
    1.3060    8.5349   14.9122 C   0  0  0  0  0  0
    1.3286    8.0783   13.6538 C   0  0  0  0  0  0
    1.0995    6.6924   13.6572 N   0  0  0  0  0  0
    1.0454    6.0665   12.8497 H   0  0  0  0  0  0
    0.5570    5.2730   15.1524 H   0  0  0  0  0  0
    0.6425    7.4976   16.8473 H   0  0  0  0  0  0
    1.5156    9.5403   15.2772 H   0  0  0  0  0  0
    1.6024    8.5852   12.7285 H   0  0  0  0  0  0
    3.5229    8.8789   12.4794 C   0  0  0  0  0  0
    3.3799    8.7495   11.1143 C   0  0  0  0  0  0
    4.1143    7.6116   10.6442 C   0  0  0  0  0  0
    4.7566    7.0933   11.7485 C   0  0  0  0  0  0
    4.4629    7.9305   12.8108 N   0  0  0  0  0  0
    4.8571    7.8077   13.7468 H   0  0  0  0  0  0
    3.0337    9.6333   13.0956 H   0  0  0  0  0  0
    2.7607    9.4249   10.5240 H   0  0  0  0  0  0
    4.2088    7.0982    9.6873 H   0  0  0  0  0  0
    5.3759    6.2568   12.0721 H   0  0  0  0  0  0
  1  2  2  0  0  0
  2  3  1  0  0  0
  3  4  2  0  0  0
  4  5  1  0  0  0
  5  6  1  0  0  0
  1  5  1  0  0  0
  1  7  1  0  0  0
  2  8  1  0  0  0
  3  9  1  0  0  0
  4 10  1  0  0  0
 11 12  2  0  0  0
 12 13  1  0  0  0
 13 14  2  0  0  0
 14 15  1  0  0  0
 15 16  1  0  0  0
 11 15  1  0  0  0
 11 17  1  0  0  0
 12 18  1  0  0  0
 13 19  1  0  0  0
 14 20  1  0  0  0
M  END
$$$$
