


 20 20  0  0  1  0            999 V2000
   -0.0567   11.6454   -8.0516 C   0  0  0  0  0  0
    0.7821   12.5791   -8.5886 C   0  0  0  0  0  0
    0.4779   13.8569   -8.0760 C   0  0  0  0  0  0
   -0.6370   13.7107   -7.2856 C   0  0  0  0  0  0
   -0.8823   12.3523   -7.2089 N   0  0  0  0  0  0
   -1.6217   11.9397   -6.6349 H   0  0  0  0  0  0
    0.0475   10.5763   -8.2365 H   0  0  0  0  0  0
    1.6368   12.3541   -9.2266 H   0  0  0  0  0  0
    0.9972   14.7950   -8.2725 H   0  0  0  0  0  0
   -1.2040   14.3970   -6.6565 H   0  0  0  0  0  0
    0.2953   11.2308  -13.3519 C   0  0  0  0  0  0
    1.0875   10.8318  -12.2766 C   0  0  0  0  0  0
    1.1436   11.8966  -11.3770 C   0  0  0  0  0  0
    0.3771   12.9188  -11.8786 C   0  0  0  0  0  0
   -0.1213   12.5554  -13.1432 N   0  0  0  0  0  0
   -0.7673   13.0780  -13.7400 H   0  0  0  0  0  0
    0.0068   10.7023  -14.2606 H   0  0  0  0  0  0
    1.5840    9.8783  -12.0968 H   0  0  0  0  0  0
    1.6534   11.9646  -10.4160 H   0  0  0  0  0  0
    0.0309   13.8518  -11.4340 H   0  0  0  0  0  0
  1  2  2  0  0  0
  2  3  1  0  0  0
  3  4  2  0  0  0
  4  5  1  0  0  0
  5  6  1  0  0  0
  1  5  1  0  0  0
  1  7  1  0  0  0
  2  8  1  0  0  0
  3  9  1  0  0  0
  4 10  1  0  0  0
 11 12  2  0  0  0
 12 13  1  0  0  0
 13 14  2  0  0  0
 14 15  1  0  0  0
 15 16  1  0  0  0
 11 15  1  0  0  0
 11 17  1  0  0  0
 12 18  1  0  0  0
 13 19  1  0  0  0
 14 20  1  0  0  0
M  END
$$$$
