


 20 20  0  0  1  0            999 V2000
  -17.3510   -8.0277   -7.8875 C   0  0  0  0  0  0
  -16.9754   -8.0302   -9.2250 C   0  0  0  0  0  0
  -17.3229   -9.3546   -9.6654 C   0  0  0  0  0  0
  -18.0450  -10.0013   -8.7008 C   0  0  0  0  0  0
  -18.0889   -9.1581   -7.6774 N   0  0  0  0  0  0
  -18.4347   -9.2276   -6.7171 H   0  0  0  0  0  0
  -17.2134   -7.2554   -7.1307 H   0  0  0  0  0  0
  -16.4708   -7.2837   -9.8385 H   0  0  0  0  0  0
  -17.0422   -9.7370  -10.6468 H   0  0  0  0  0  0
  -18.6448  -10.9109   -8.7342 H   0  0  0  0  0  0
  -13.3661   -3.3427   -8.5332 C   0  0  0  0  0  0
  -13.6127   -4.6842   -8.5973 C   0  0  0  0  0  0
  -14.7664   -5.0004   -9.3604 C   0  0  0  0  0  0
  -15.3501   -3.7946   -9.5867 C   0  0  0  0  0  0
  -14.4843   -2.8139   -9.1499 N   0  0  0  0  0  0
  -14.7121   -1.8176   -9.1951 H   0  0  0  0  0  0
  -12.5680   -2.7841   -8.0442 H   0  0  0  0  0  0
  -12.9781   -5.4563   -8.1623 H   0  0  0  0  0  0
  -15.2198   -5.9486   -9.6494 H   0  0  0  0  0  0
  -16.3056   -3.6716  -10.0965 H   0  0  0  0  0  0
  1  2  2  0  0  0
  2  3  1  0  0  0
  3  4  2  0  0  0
  4  5  1  0  0  0
  5  6  1  0  0  0
  1  5  1  0  0  0
  1  7  1  0  0  0
  2  8  1  0  0  0
  3  9  1  0  0  0
  4 10  1  0  0  0
 11 12  2  0  0  0
 12 13  1  0  0  0
 13 14  2  0  0  0
 14 15  1  0  0  0
 15 16  1  0  0  0
 11 15  1  0  0  0
 11 17  1  0  0  0
 12 18  1  0  0  0
 13 19  1  0  0  0
 14 20  1  0  0  0
M  END
$$$$
