


 21 21  0  0  1  0            999 V2000
    0.2650    2.6047    2.8347 S   0  0  0  0  0  0
    1.4198    3.0011    4.1650 C   0  0  0  0  0  0
    2.6713    1.7523    4.5322 S   0  0  0  0  0  0
    3.5851    1.8524    2.9780 C   0  0  0  0  0  0
    2.7024    1.3115    1.4985 S   0  0  0  0  0  0
    1.4475    2.6096    1.4700 C   0  0  0  0  0  0
    1.9113    3.9706    3.9551 H   0  0  0  0  0  0
    0.8146    3.1225    5.0839 H   0  0  0  0  0  0
    4.4632    1.1867    3.0837 H   0  0  0  0  0  0
    3.9601    2.8836    2.8320 H   0  0  0  0  0  0
    0.8611    2.4627    0.5426 H   0  0  0  0  0  0
    1.9374    3.6001    1.4051 H   0  0  0  0  0  0
    0.3908    0.2410   -0.6091 C   0  0  0  0  0  0
   -0.1179    1.1444   -1.4319 N   0  0  0  0  0  0
   -1.2188    1.6459   -0.7796 C   0  0  0  0  0  0
   -1.3766    1.0402    0.4482 C   0  0  0  0  0  0
   -0.3389    0.1462    0.5387 N   0  0  0  0  0  0
   -0.1474   -0.4789    1.3256 H   0  0  0  0  0  0
    1.2768   -0.3670   -0.7918 H   0  0  0  0  0  0
   -1.8434    2.4189   -1.2272 H   0  0  0  0  0  0
   -2.1125    1.1612    1.2431 H   0  0  0  0  0  0
  1  2  1  0  0  0
  2  3  1  0  0  0
  3  4  1  0  0  0
  4  5  1  0  0  0
  5  6  1  0  0  0
  1  6  1  0  0  0
  2  7  1  0  0  0
  2  8  1  0  0  0
  4  9  1  0  0  0
  4 10  1  0  0  0
  6 11  1  0  0  0
  6 12  1  0  0  0
 13 14  2  0  0  0
 14 15  1  0  0  0
 15 16  2  0  0  0
 16 17  1  0  0  0
 17 18  1  0  0  0
 13 17  1  0  0  0
 13 19  1  0  0  0
 15 20  1  0  0  0
 16 21  1  0  0  0
M  END
$$$$
