


 21 21  0  0  1  0            999 V2000
    0.2650    2.6047    2.8347 S   0  0  0  0  0  0
    1.4198    3.0011    4.1650 C   0  0  0  0  0  0
    2.6713    1.7523    4.5322 S   0  0  0  0  0  0
    3.5851    1.8524    2.9780 C   0  0  0  0  0  0
    2.7024    1.3115    1.4985 S   0  0  0  0  0  0
    1.4475    2.6096    1.4700 C   0  0  0  0  0  0
    1.9113    3.9706    3.9551 H   0  0  0  0  0  0
    0.8146    3.1225    5.0839 H   0  0  0  0  0  0
    4.4632    1.1867    3.0837 H   0  0  0  0  0  0
    3.9601    2.8836    2.8320 H   0  0  0  0  0  0
    0.8611    2.4627    0.5426 H   0  0  0  0  0  0
    1.9374    3.6001    1.4051 H   0  0  0  0  0  0
    0.4503    0.2821   -0.5400 C   0  0  0  0  0  0
   -0.0584    1.1854   -1.3629 N   0  0  0  0  0  0
   -1.1593    1.6869   -0.7105 C   0  0  0  0  0  0
   -1.3170    1.0813    0.5173 C   0  0  0  0  0  0
   -0.2794    0.1872    0.6078 N   0  0  0  0  0  0
   -0.0879   -0.4378    1.3946 H   0  0  0  0  0  0
    1.3363   -0.3260   -0.7227 H   0  0  0  0  0  0
   -1.7839    2.4600   -1.1581 H   0  0  0  0  0  0
   -2.0530    1.2023    1.3122 H   0  0  0  0  0  0
  1  2  1  0  0  0
  2  3  1  0  0  0
  3  4  1  0  0  0
  4  5  1  0  0  0
  5  6  1  0  0  0
  1  6  1  0  0  0
  2  7  1  0  0  0
  2  8  1  0  0  0
  4  9  1  0  0  0
  4 10  1  0  0  0
  6 11  1  0  0  0
  6 12  1  0  0  0
 13 14  2  0  0  0
 14 15  1  0  0  0
 15 16  2  0  0  0
 16 17  1  0  0  0
 17 18  1  0  0  0
 13 17  1  0  0  0
 13 19  1  0  0  0
 15 20  1  0  0  0
 16 21  1  0  0  0
M  END
$$$$
