


 23 21  0  0  1  0            999 V2000
    1.2933    4.6098    1.1961 C   0  0  0  0  0  0
    0.7784    4.5373    2.5174 O   0  0  0  0  0  0
    0.7998    3.2306    3.0195 C   0  0  0  0  0  0
   -0.0558    2.3480    2.3495 O   0  0  0  0  0  0
   -1.4224    2.6874    2.5324 C   0  0  0  0  0  0
    1.3014    5.6726    0.9013 H   0  0  0  0  0  0
    0.6726    4.0498    0.4766 H   0  0  0  0  0  0
    2.3251    4.2230    1.1464 H   0  0  0  0  0  0
    1.8117    2.7869    2.9510 H   0  0  0  0  0  0
    0.5394    3.3109    4.0925 H   0  0  0  0  0  0
   -1.6911    2.7053    3.6020 H   0  0  0  0  0  0
   -1.6702    3.6674    2.0910 H   0  0  0  0  0  0
   -2.0264    1.9128    2.0307 H   0  0  0  0  0  0
    2.8600   -1.1295    3.8429 C   0  0  0  0  0  0
    4.3865   -0.7333    2.9627 S   0  0  0  0  0  0
    4.0372   -1.5275    1.1182 S   0  0  0  0  0  0
    3.1288   -0.1995    0.2980 C   0  0  0  0  0  0
    2.9725   -0.7671    4.8786 H   0  0  0  0  0  0
    2.6803   -2.2175    3.8684 H   0  0  0  0  0  0
    1.9816   -0.6383    3.3917 H   0  0  0  0  0  0
    2.1671    0.0136    0.7945 H   0  0  0  0  0  0
    3.7200    0.7310    0.2623 H   0  0  0  0  0  0
    2.9261   -0.5273   -0.7355 H   0  0  0  0  0  0
  1  2  1  0  0  0
  2  3  1  0  0  0
  3  4  1  0  0  0
  4  5  1  0  0  0
  1  6  1  0  0  0
  1  7  1  0  0  0
  1  8  1  0  0  0
  3  9  1  0  0  0
  3 10  1  0  0  0
  5 11  1  0  0  0
  5 12  1  0  0  0
  5 13  1  0  0  0
 14 15  1  0  0  0
 15 16  1  0  0  0
 16 17  1  0  0  0
 14 18  1  0  0  0
 14 19  1  0  0  0
 14 20  1  0  0  0
 17 21  1  0  0  0
 17 22  1  0  0  0
 17 23  1  0  0  0
M  END
$$$$
