


  4  2  0  0  1  0            999 V2000
    5.6097   -0.1084    0.6198 O   0  0  0  0  0  0
    4.8661    0.5343    0.5718 H   0  0  0  0  0  0
    5.1835   -0.9638    0.8542 H   0  0  0  0  0  0
    0.0000    0.0000    0.0000 F   0  0  0  0  0  0
  1  2  1  0  0  0
  1  3  1  0  0  0
M  CHG  1   4  -1
M  END
$$$$
