


  4  2  0  0  1  0            999 V2000
   -1.4262   -2.3002   -0.5235 O   0  0  0  0  0  0
   -1.6016   -2.6424   -1.4293 H   0  0  0  0  0  0
   -0.9729   -1.4388   -0.6672 H   0  0  0  0  0  0
    0.6250    0.9740    0.3173 F   0  0  0  0  0  0
  1  2  1  0  0  0
  1  3  1  0  0  0
M  CHG  1   4  -1
M  END
$$$$
