


 22 20  0  0  1  0            999 V2000
   -0.4924    1.5906    6.0406 C   0  0  0  0  0  0
   -0.6055    2.0401    4.5907 C   0  0  0  0  0  0
    0.9701    1.9740    3.6832 S   0  0  0  0  0  0
   -0.0946    0.5633    6.0946 H   0  0  0  0  0  0
   -1.4839    1.6099    6.5235 H   0  0  0  0  0  0
    0.1840    2.2596    6.5989 H   0  0  0  0  0  0
   -1.2733    1.3644    4.0225 H   0  0  0  0  0  0
   -1.0219    3.0633    4.5188 H   0  0  0  0  0  0
    1.6288    2.8557    4.4650 H   0  0  0  0  0  0
    2.0075    3.0695   -2.9197 C   0  0  0  0  0  0
    2.3556    1.9624   -2.0348 N   0  0  0  0  0  0
    2.0536    1.9226   -0.7419 C   0  0  0  0  0  0
    2.4082    0.8701    0.0045 N   0  0  0  0  0  0
    2.9152    0.0897   -0.4205 H   0  0  0  0  0  0
    2.1726    0.8456    0.9997 H   0  0  0  0  0  0
    1.3923    2.9383   -0.1830 N   0  0  0  0  0  0
    2.3802    2.8351   -3.9310 H   0  0  0  0  0  0
    2.4707    4.0125   -2.5839 H   0  0  0  0  0  0
    0.9151    3.2132   -2.9719 H   0  0  0  0  0  0
    2.8630    1.1672   -2.4307 H   0  0  0  0  0  0
    1.1198    3.7444   -0.7509 H   0  0  0  0  0  0
    1.1580    2.9111    0.8124 H   0  0  0  0  0  0
  1  2  1  0  0  0
  2  3  1  0  0  0
  1  4  1  0  0  0
  1  5  1  0  0  0
  1  6  1  0  0  0
  2  7  1  0  0  0
  2  8  1  0  0  0
  3  9  1  0  0  0
 10 11  1  0  0  0
 11 12  1  0  0  0
 12 13  2  0  0  0
 13 14  1  0  0  0
 13 15  1  0  0  0
 12 16  1  0  0  0
 10 17  1  0  0  0
 10 18  1  0  0  0
 10 19  1  0  0  0
 11 20  1  0  0  0
 16 21  1  0  0  0
 16 22  1  0  0  0
M  CHG  1  13   1
M  END
$$$$
