


 15 13  0  0  1  0            999 V2000
    0.0000    0.0000    0.0000 C   0  0  0  0  0  0
    0.7811    1.1260    0.3663 N   0  0  0  0  0  0
    0.8638    2.2438   -0.3332 C   0  0  0  0  0  0
    0.2653    2.4016   -1.4110 O   0  0  0  0  0  0
    1.7211    3.3773    0.1941 C   0  0  0  0  0  0
   -1.0286    0.3268   -0.2277 H   0  0  0  0  0  0
   -0.0426   -0.7764    0.7823 H   0  0  0  0  0  0
    0.4385   -0.4417   -0.9106 H   0  0  0  0  0  0
    1.3526    0.9429    1.1948 H   0  0  0  0  0  0
    1.6243    4.2110   -0.5215 H   0  0  0  0  0  0
    2.7434    2.9694    0.1227 H   0  0  0  0  0  0
    1.5693    3.7696    1.2138 H   0  0  0  0  0  0
    5.3499    2.2066   -0.8842 O   0  0  0  0  0  0
    5.2489    1.6665   -1.7005 H   0  0  0  0  0  0
    4.8505    1.7115   -0.1959 H   0  0  0  0  0  0
  1  2  1  0  0  0
  2  3  1  0  0  0
  3  4  2  0  0  0
  3  5  1  0  0  0
  1  6  1  0  0  0
  1  7  1  0  0  0
  1  8  1  0  0  0
  2  9  1  0  0  0
  5 10  1  0  0  0
  5 11  1  0  0  0
  5 12  1  0  0  0
 13 14  1  0  0  0
 13 15  1  0  0  0
M  END
$$$$
