


 21 20  0  0  1  0            999 V2000
   -0.3951    1.7539    1.0108 C   0  0  0  0  0  0
   -0.2527    1.7300   -0.5107 C   0  0  0  0  0  0
    1.0465    1.0565   -0.9512 C   0  0  0  0  0  0
   -0.3911    0.7243    1.4064 H   0  0  0  0  0  0
   -1.3369    2.2428    1.3116 H   0  0  0  0  0  0
    0.4472    2.3066    1.4599 H   0  0  0  0  0  0
   -1.1125    1.1883   -0.9498 H   0  0  0  0  0  0
   -0.2759    2.7673   -0.8964 H   0  0  0  0  0  0
    1.0740    0.0155   -0.5877 H   0  0  0  0  0  0
    1.1335    1.0476   -2.0507 H   0  0  0  0  0  0
    1.9123    1.5978   -0.5342 H   0  0  0  0  0  0
    2.6536    0.0306    4.1930 C   0  0  0  0  0  0
    3.5801   -0.4878    5.0048 N   0  0  0  0  0  0
    3.5120   -0.4869    6.0386 H   0  0  0  0  0  0
    4.6168   -1.0122    4.2730 C   0  0  0  0  0  0
    4.3044   -0.8019    2.9562 C   0  0  0  0  0  0
    3.0913   -0.1588    2.9445 N   0  0  0  0  0  0
    2.5769    0.1425    2.0971 H   0  0  0  0  0  0
    1.7230    0.5136    4.4909 H   0  0  0  0  0  0
    5.4821   -1.4864    4.7361 H   0  0  0  0  0  0
    4.8434   -1.0566    2.0436 H   0  0  0  0  0  0
  1  2  1  0  0  0
  2  3  1  0  0  0
  1  4  1  0  0  0
  1  5  1  0  0  0
  1  6  1  0  0  0
  2  7  1  0  0  0
  2  8  1  0  0  0
  3  9  1  0  0  0
  3 10  1  0  0  0
  3 11  1  0  0  0
 12 13  1  0  0  0
 13 14  1  0  0  0
 13 15  1  0  0  0
 15 16  2  0  0  0
 16 17  1  0  0  0
 17 18  1  0  0  0
 12 17  2  0  0  0
 12 19  1  0  0  0
 15 20  1  0  0  0
 16 21  1  0  0  0
M  CHG  1  17   1
M  END
$$$$
