


 21 20  0  0  1  0            999 V2000
   -0.3951    1.7539    1.0108 C   0  0  0  0  0  0
   -0.2527    1.7300   -0.5107 C   0  0  0  0  0  0
    1.0465    1.0565   -0.9512 C   0  0  0  0  0  0
   -0.3911    0.7243    1.4064 H   0  0  0  0  0  0
   -1.3369    2.2428    1.3116 H   0  0  0  0  0  0
    0.4472    2.3066    1.4599 H   0  0  0  0  0  0
   -1.1125    1.1883   -0.9498 H   0  0  0  0  0  0
   -0.2759    2.7673   -0.8964 H   0  0  0  0  0  0
    1.0740    0.0155   -0.5877 H   0  0  0  0  0  0
    1.1335    1.0476   -2.0507 H   0  0  0  0  0  0
    1.9123    1.5978   -0.5342 H   0  0  0  0  0  0
    2.0249    0.3961    3.2385 C   0  0  0  0  0  0
    2.9513   -0.1224    4.0503 N   0  0  0  0  0  0
    2.8832   -0.1214    5.0841 H   0  0  0  0  0  0
    3.9880   -0.6468    3.3185 C   0  0  0  0  0  0
    3.6756   -0.4365    2.0016 C   0  0  0  0  0  0
    2.4625    0.2066    1.9899 N   0  0  0  0  0  0
    1.9482    0.5079    1.1426 H   0  0  0  0  0  0
    1.0943    0.8791    3.5364 H   0  0  0  0  0  0
    4.8534   -1.1210    3.7815 H   0  0  0  0  0  0
    4.2147   -0.6911    1.0891 H   0  0  0  0  0  0
  1  2  1  0  0  0
  2  3  1  0  0  0
  1  4  1  0  0  0
  1  5  1  0  0  0
  1  6  1  0  0  0
  2  7  1  0  0  0
  2  8  1  0  0  0
  3  9  1  0  0  0
  3 10  1  0  0  0
  3 11  1  0  0  0
 12 13  1  0  0  0
 13 14  1  0  0  0
 13 15  1  0  0  0
 15 16  2  0  0  0
 16 17  1  0  0  0
 17 18  1  0  0  0
 12 17  2  0  0  0
 12 19  1  0  0  0
 15 20  1  0  0  0
 16 21  1  0  0  0
M  CHG  1  17   1
M  END
$$$$
