


 19 17  0  0  1  0            999 V2000
    0.0000    0.0000    0.0000 C   0  0  0  0  0  0
   -0.7685    1.2266    0.0186 N   0  0  0  0  0  0
   -1.2468    1.5198   -1.3269 C   0  0  0  0  0  0
   -2.0363    2.7950   -1.2711 C   0  0  0  0  0  0
   -3.0689    2.8376   -2.2091 O   0  0  0  0  0  0
   -2.9933    3.6746   -3.2806 C   0  0  0  0  0  0
   -3.8612    3.8007   -4.1422 O   0  0  0  0  0  0
   -0.6835   -0.8419   -0.2018 H   0  0  0  0  0  0
    0.4976   -0.1753    0.9686 H   0  0  0  0  0  0
    0.7686    0.0265   -0.7907 H   0  0  0  0  0  0
   -0.2210    2.0143    0.3882 H   0  0  0  0  0  0
   -0.3507    1.6444   -1.9647 H   0  0  0  0  0  0
   -1.8574    0.7042   -1.7599 H   0  0  0  0  0  0
   -2.6148    2.8891   -0.3320 H   0  0  0  0  0  0
   -1.3797    3.6826   -1.3522 H   0  0  0  0  0  0
   -2.1016    4.3248   -3.1818 H   0  0  0  0  0  0
    4.0080   -0.6553    1.6026 O   0  0  0  0  0  0
    4.2149    0.0613    2.2445 H   0  0  0  0  0  0
    3.5840   -0.1938    0.8439 H   0  0  0  0  0  0
  1  2  1  0  0  0
  2  3  1  0  0  0
  3  4  1  0  0  0
  4  5  1  0  0  0
  5  6  1  0  0  0
  6  7  2  0  0  0
  1  8  1  0  0  0
  1  9  1  0  0  0
  1 10  1  0  0  0
  2 11  1  0  0  0
  3 12  1  0  0  0
  3 13  1  0  0  0
  4 14  1  0  0  0
  4 15  1  0  0  0
  6 16  1  0  0  0
 17 18  1  0  0  0
 17 19  1  0  0  0
M  END
$$$$
