


 20 18  0  0  1  0            999 V2000
    0.9995    2.3604    6.4531 C   0  0  0  0  0  0
    0.6175    3.8185    6.4374 C   0  0  0  0  0  0
   -0.1455    4.0976    5.3014 F   0  0  0  0  0  0
    0.0993    1.7233    6.4701 H   0  0  0  0  0  0
    1.6019    2.1424    7.3510 H   0  0  0  0  0  0
    1.5943    2.1052    5.5599 H   0  0  0  0  0  0
    0.0118    4.1001    7.3202 H   0  0  0  0  0  0
    1.5037    4.4813    6.4120 H   0  0  0  0  0  0
    1.7735    0.7446   -0.8775 C   0  0  0  0  0  0
    2.4785    1.8097   -0.1915 N   0  0  0  0  0  0
    3.7579    2.1326   -0.5290 C   0  0  0  0  0  0
    4.3567    1.5377   -1.4202 O   0  0  0  0  0  0
    4.3685    3.2641    0.2704 C   0  0  0  0  0  0
    0.7606    0.6508   -0.4511 H   0  0  0  0  0  0
    2.2972   -0.2184   -0.7550 H   0  0  0  0  0  0
    1.6829    0.9612   -1.9552 H   0  0  0  0  0  0
    2.0134    2.3291    0.5571 H   0  0  0  0  0  0
    4.4044    3.0151    1.3444 H   0  0  0  0  0  0
    5.3981    3.4389   -0.0847 H   0  0  0  0  0  0
    3.7901    4.1947    0.1442 H   0  0  0  0  0  0
  1  2  1  0  0  0
  2  3  1  0  0  0
  1  4  1  0  0  0
  1  5  1  0  0  0
  1  6  1  0  0  0
  2  7  1  0  0  0
  2  8  1  0  0  0
  9 10  1  0  0  0
 10 11  1  0  0  0
 11 12  2  0  0  0
 11 13  1  0  0  0
  9 14  1  0  0  0
  9 15  1  0  0  0
  9 16  1  0  0  0
 10 17  1  0  0  0
 13 18  1  0  0  0
 13 19  1  0  0  0
 13 20  1  0  0  0
M  END
$$$$
