


 23 22  0  0  1  0            999 V2000
    3.0036    2.0188    0.8689 C   0  0  0  0  0  0
    3.7440    0.6967    0.7334 C   0  0  0  0  0  0
    4.5844    0.4789    1.9828 C   0  0  0  0  0  0
    3.7700    0.5902    3.1506 O   0  0  0  0  0  0
    3.1415    1.8447    3.1758 C   0  0  0  0  0  0
    2.2710    2.0505    2.0944 O   0  0  0  0  0  0
    2.2675    2.1772    0.0574 H   0  0  0  0  0  0
    3.7174    2.8647    0.8457 H   0  0  0  0  0  0
    3.0140   -0.1289    0.6281 H   0  0  0  0  0  0
    4.3828    0.6985   -0.1707 H   0  0  0  0  0  0
    5.4017    1.2238    2.0326 H   0  0  0  0  0  0
    5.0441   -0.5277    2.0139 H   0  0  0  0  0  0
    3.9024    2.6481    3.2067 H   0  0  0  0  0  0
    2.5469    1.9082    4.1074 H   0  0  0  0  0  0
   -2.9910   -2.3963   -1.2881 C   0  0  0  0  0  0
   -1.8401   -1.4672   -0.9700 C   0  0  0  0  0  0
   -1.0451   -1.0706   -1.8107 O   0  0  0  0  0  0
   -1.7507   -1.0971    0.3426 N   0  0  0  0  0  0
   -2.9768   -2.6348   -2.3649 H   0  0  0  0  0  0
   -3.9574   -1.9233   -1.0452 H   0  0  0  0  0  0
   -2.9066   -3.3369   -0.7183 H   0  0  0  0  0  0
   -2.4171   -1.4304    1.0436 H   0  0  0  0  0  0
   -0.9912   -0.4691    0.6169 H   0  0  0  0  0  0
  1  2  1  0  0  0
  2  3  1  0  0  0
  3  4  1  0  0  0
  4  5  1  0  0  0
  5  6  1  0  0  0
  1  6  1  0  0  0
  1  7  1  0  0  0
  1  8  1  0  0  0
  2  9  1  0  0  0
  2 10  1  0  0  0
  3 11  1  0  0  0
  3 12  1  0  0  0
  5 13  1  0  0  0
  5 14  1  0  0  0
 15 16  1  0  0  0
 16 17  2  0  0  0
 16 18  1  0  0  0
 15 19  1  0  0  0
 15 20  1  0  0  0
 15 21  1  0  0  0
 18 22  1  0  0  0
 18 23  1  0  0  0
M  END
$$$$
