


 23 22  0  0  1  0            999 V2000
    3.2332    2.2462    2.0339 C   0  0  0  0  0  0
    2.6571    3.5388    2.5989 C   0  0  0  0  0  0
    1.3913    3.6930    1.7571 C   0  0  0  0  0  0
    1.8847    3.2290    0.3921 C   0  0  0  0  0  0
    2.8735    2.2209    0.6453 O   0  0  0  0  0  0
    2.8023    1.3610    2.5399 H   0  0  0  0  0  0
    4.3351    2.1763    2.1135 H   0  0  0  0  0  0
    2.4697    3.4871    3.6887 H   0  0  0  0  0  0
    3.3472    4.3848    2.4158 H   0  0  0  0  0  0
    0.9836    4.7221    1.7411 H   0  0  0  0  0  0
    0.5950    3.0214    2.1318 H   0  0  0  0  0  0
    2.3472    4.0623   -0.1709 H   0  0  0  0  0  0
    1.0913    2.7921   -0.2444 H   0  0  0  0  0  0
    0.7851   -0.2549   -0.9666 C   0  0  0  0  0  0
    0.9585   -0.4269    0.5248 C   0  0  0  0  0  0
    0.2053    0.1005    1.3270 O   0  0  0  0  0  0
    2.1184   -1.2898    0.9656 C   0  0  0  0  0  0
   -0.0882    0.3837   -1.1814 H   0  0  0  0  0  0
    0.6319   -1.2345   -1.4498 H   0  0  0  0  0  0
    1.6815    0.2165   -1.4034 H   0  0  0  0  0  0
    2.0080   -2.3116    0.5652 H   0  0  0  0  0  0
    3.0696   -0.8690    0.5988 H   0  0  0  0  0  0
    2.1598   -1.3459    2.0664 H   0  0  0  0  0  0
  1  2  1  0  0  0
  2  3  1  0  0  0
  3  4  1  0  0  0
  4  5  1  0  0  0
  1  5  1  0  0  0
  1  6  1  0  0  0
  1  7  1  0  0  0
  2  8  1  0  0  0
  2  9  1  0  0  0
  3 10  1  0  0  0
  3 11  1  0  0  0
  4 12  1  0  0  0
  4 13  1  0  0  0
 14 15  1  0  0  0
 15 16  2  0  0  0
 15 17  1  0  0  0
 14 18  1  0  0  0
 14 19  1  0  0  0
 14 20  1  0  0  0
 17 21  1  0  0  0
 17 22  1  0  0  0
 17 23  1  0  0  0
M  END
$$$$
