


 26 24  0  0  1  0            999 V2000
    2.7557    3.0155    4.6087 C   0  0  0  0  0  0
    2.9535    1.8183    3.8827 N   0  0  0  0  0  0
    2.2093    1.9850    2.5851 C   0  0  0  0  0  0
    2.5219    0.6522    4.6244 C   0  0  0  0  0  0
    3.1325    3.8641    4.0133 H   0  0  0  0  0  0
    3.3012    2.9885    5.5670 H   0  0  0  0  0  0
    1.6853    3.1802    4.8178 H   0  0  0  0  0  0
    2.6769    2.8213    2.0387 H   0  0  0  0  0  0
    1.1315    2.1935    2.6920 H   0  0  0  0  0  0
    2.3322    1.0639    1.9907 H   0  0  0  0  0  0
    3.0793    0.5994    5.5747 H   0  0  0  0  0  0
    2.7483   -0.2510    4.0332 H   0  0  0  0  0  0
    1.4423    0.6636    4.8499 H   0  0  0  0  0  0
    1.4321    8.4111    1.3529 C   0  0  0  0  0  0
    0.6600    7.4469    2.1909 N   0  0  0  0  0  0
   -0.6699    8.0721    2.4737 C   0  0  0  0  0  0
    1.4530    7.3209    3.4371 C   0  0  0  0  0  0
    1.4680    9.4390    1.7512 H   0  0  0  0  0  0
    1.0196    8.4442    0.3305 H   0  0  0  0  0  0
    2.4610    8.0164    1.3045 H   0  0  0  0  0  0
   -1.2093    7.4222    3.1831 H   0  0  0  0  0  0
   -1.1917    8.0420    1.5023 H   0  0  0  0  0  0
   -0.6956    9.1068    2.8549 H   0  0  0  0  0  0
    1.1953    8.2659    3.9444 H   0  0  0  0  0  0
    2.5512    7.2211    3.4158 H   0  0  0  0  0  0
    1.0348    6.4832    4.0202 H   0  0  0  0  0  0
  1  2  1  0  0  0
  2  3  1  0  0  0
  2  4  1  0  0  0
  1  5  1  0  0  0
  1  6  1  0  0  0
  1  7  1  0  0  0
  3  8  1  0  0  0
  3  9  1  0  0  0
  3 10  1  0  0  0
  4 11  1  0  0  0
  4 12  1  0  0  0
  4 13  1  0  0  0
 14 15  1  0  0  0
 15 16  1  0  0  0
 15 17  1  0  0  0
 14 18  1  0  0  0
 14 19  1  0  0  0
 14 20  1  0  0  0
 16 21  1  0  0  0
 16 22  1  0  0  0
 16 23  1  0  0  0
 17 24  1  0  0  0
 17 25  1  0  0  0
 17 26  1  0  0  0
M  END
$$$$
