


 26 24  0  0  1  0            999 V2000
    2.7346   -3.8369    4.5208 C   0  0  0  0  0  0
    2.6357   -3.4827    3.1206 N   0  0  0  0  0  0
    1.2402   -3.2695    2.7855 C   0  0  0  0  0  0
    3.3749   -2.2643    2.8603 C   0  0  0  0  0  0
    2.3135   -4.8414    4.6946 H   0  0  0  0  0  0
    2.2106   -3.1180    5.1729 H   0  0  0  0  0  0
    3.8021   -3.8501    4.7982 H   0  0  0  0  0  0
    0.6579   -4.1985    2.9066 H   0  0  0  0  0  0
    1.2163   -2.9753    1.7227 H   0  0  0  0  0  0
    0.7618   -2.4742    3.3815 H   0  0  0  0  0  0
    4.4604   -2.4090    2.9919 H   0  0  0  0  0  0
    3.0526   -1.4224    3.4958 H   0  0  0  0  0  0
    3.1799   -2.0043    1.8063 H   0  0  0  0  0  0
    2.3918   -3.4204   -1.9787 C   0  0  0  0  0  0
    3.4757   -4.3531   -1.5164 N   0  0  0  0  0  0
    3.0515   -5.1669   -0.4085 C   0  0  0  0  0  0
    3.7431   -5.3079   -2.6012 C   0  0  0  0  0  0
    2.0470   -2.8064   -1.1297 H   0  0  0  0  0  0
    1.5197   -3.9306   -2.4210 H   0  0  0  0  0  0
    2.8323   -2.7536   -2.7390 H   0  0  0  0  0  0
    2.7491   -4.5836    0.4774 H   0  0  0  0  0  0
    3.8230   -5.8942   -0.1043 H   0  0  0  0  0  0
    2.1736   -5.7206   -0.7817 H   0  0  0  0  0  0
    3.9781   -4.7470   -3.5213 H   0  0  0  0  0  0
    2.9094   -5.9983   -2.8132 H   0  0  0  0  0  0
    4.6276   -5.9017   -2.3156 H   0  0  0  0  0  0
  1  2  1  0  0  0
  2  3  1  0  0  0
  2  4  1  0  0  0
  1  5  1  0  0  0
  1  6  1  0  0  0
  1  7  1  0  0  0
  3  8  1  0  0  0
  3  9  1  0  0  0
  3 10  1  0  0  0
  4 11  1  0  0  0
  4 12  1  0  0  0
  4 13  1  0  0  0
 14 15  1  0  0  0
 15 16  1  0  0  0
 15 17  1  0  0  0
 14 18  1  0  0  0
 14 19  1  0  0  0
 14 20  1  0  0  0
 16 21  1  0  0  0
 16 22  1  0  0  0
 16 23  1  0  0  0
 17 24  1  0  0  0
 17 25  1  0  0  0
 17 26  1  0  0  0
M  END
$$$$
