


 26 24  0  0  1  0            999 V2000
    1.9752    6.8926    6.3917 C   0  0  0  0  0  0
    0.7257    7.0203    7.1796 N   0  0  0  0  0  0
   -0.2176    6.0225    6.8425 C   0  0  0  0  0  0
    1.0351    6.9245    8.6026 C   0  0  0  0  0  0
    2.5444    6.0229    6.7609 H   0  0  0  0  0  0
    2.5778    7.8021    6.5538 H   0  0  0  0  0  0
    1.8083    6.7696    5.3084 H   0  0  0  0  0  0
   -1.1789    6.4586    7.1627 H   0  0  0  0  0  0
   -0.0778    5.0596    7.3619 H   0  0  0  0  0  0
   -0.2613    5.8335    5.7568 H   0  0  0  0  0  0
    1.3426    5.9094    8.9051 H   0  0  0  0  0  0
    0.1149    7.1910    9.1493 H   0  0  0  0  0  0
    1.8312    7.6329    8.8874 H   0  0  0  0  0  0
   -7.4491    9.0406   12.1808 C   0  0  0  0  0  0
   -6.7500    7.9461   12.8620 N   0  0  0  0  0  0
   -5.3732    7.7712   12.4464 C   0  0  0  0  0  0
   -7.4401    6.7403   12.4131 C   0  0  0  0  0  0
   -8.4881    9.0851   12.5483 H   0  0  0  0  0  0
   -7.4682    8.9541   11.0814 H   0  0  0  0  0  0
   -6.9398    9.9809   12.4510 H   0  0  0  0  0  0
   -4.7597    8.5699   12.8963 H   0  0  0  0  0  0
   -5.3122    7.8569   11.3484 H   0  0  0  0  0  0
   -4.9557    6.7954   12.7469 H   0  0  0  0  0  0
   -8.4950    6.7017   12.7328 H   0  0  0  0  0  0
   -6.8817    5.9530   12.9469 H   0  0  0  0  0  0
   -7.3926    6.5329   11.3308 H   0  0  0  0  0  0
  1  2  1  0  0  0
  2  3  1  0  0  0
  2  4  1  0  0  0
  1  5  1  0  0  0
  1  6  1  0  0  0
  1  7  1  0  0  0
  3  8  1  0  0  0
  3  9  1  0  0  0
  3 10  1  0  0  0
  4 11  1  0  0  0
  4 12  1  0  0  0
  4 13  1  0  0  0
 14 15  1  0  0  0
 15 16  1  0  0  0
 15 17  1  0  0  0
 14 18  1  0  0  0
 14 19  1  0  0  0
 14 20  1  0  0  0
 16 21  1  0  0  0
 16 22  1  0  0  0
 16 23  1  0  0  0
 17 24  1  0  0  0
 17 25  1  0  0  0
 17 26  1  0  0  0
M  END
$$$$
