


 26 24  0  0  1  0            999 V2000
   10.6792   -6.3811   10.3526 C   0  0  0  0  0  0
   11.9128   -5.5354   10.4686 N   0  0  0  0  0  0
   11.9605   -4.8401    9.2080 C   0  0  0  0  0  0
   11.8593   -4.6853   11.6088 C   0  0  0  0  0  0
   10.4167   -6.9024   11.2885 H   0  0  0  0  0  0
   10.9000   -7.1361    9.5794 H   0  0  0  0  0  0
    9.8098   -5.7863   10.0254 H   0  0  0  0  0  0
   12.3847   -5.5849    8.5138 H   0  0  0  0  0  0
   12.6841   -4.0159    9.3249 H   0  0  0  0  0  0
   11.0344   -4.4351    8.7665 H   0  0  0  0  0  0
   11.8352   -3.5929   11.4581 H   0  0  0  0  0  0
   12.6743   -4.9254   12.3122 H   0  0  0  0  0  0
   10.9025   -4.9996   12.0585 H   0  0  0  0  0  0
   10.6765    0.7715   11.8174 C   0  0  0  0  0  0
   10.2920    0.0673   12.9897 N   0  0  0  0  0  0
    9.9587   -1.3349   12.6433 C   0  0  0  0  0  0
   11.4771    0.1890   13.9205 C   0  0  0  0  0  0
    9.9623    0.6653   10.9837 H   0  0  0  0  0  0
   11.6681    0.4289   11.4770 H   0  0  0  0  0  0
   10.7465    1.8388   12.0869 H   0  0  0  0  0  0
   10.8752   -1.9247   12.4731 H   0  0  0  0  0  0
    9.2870   -1.4715   11.7791 H   0  0  0  0  0  0
    9.4545   -1.7207   13.5452 H   0  0  0  0  0  0
   11.1637   -0.5042   14.7192 H   0  0  0  0  0  0
   11.7904    1.1401   14.3830 H   0  0  0  0  0  0
   12.3425   -0.2483   13.3947 H   0  0  0  0  0  0
  1  2  1  0  0  0
  2  3  1  0  0  0
  2  4  1  0  0  0
  1  5  1  0  0  0
  1  6  1  0  0  0
  1  7  1  0  0  0
  3  8  1  0  0  0
  3  9  1  0  0  0
  3 10  1  0  0  0
  4 11  1  0  0  0
  4 12  1  0  0  0
  4 13  1  0  0  0
 14 15  1  0  0  0
 15 16  1  0  0  0
 15 17  1  0  0  0
 14 18  1  0  0  0
 14 19  1  0  0  0
 14 20  1  0  0  0
 16 21  1  0  0  0
 16 22  1  0  0  0
 16 23  1  0  0  0
 17 24  1  0  0  0
 17 25  1  0  0  0
 17 26  1  0  0  0
M  END
$$$$
