


 26 24  0  0  1  0            999 V2000
   10.6792   -6.3811   10.3526 C   0  0  0  0  0  0
   11.9128   -5.5354   10.4686 N   0  0  0  0  0  0
   11.9605   -4.8401    9.2080 C   0  0  0  0  0  0
   11.8593   -4.6853   11.6088 C   0  0  0  0  0  0
   10.4167   -6.9024   11.2885 H   0  0  0  0  0  0
   10.9000   -7.1361    9.5794 H   0  0  0  0  0  0
    9.8098   -5.7863   10.0254 H   0  0  0  0  0  0
   12.3847   -5.5849    8.5138 H   0  0  0  0  0  0
   12.6841   -4.0159    9.3249 H   0  0  0  0  0  0
   11.0344   -4.4351    8.7665 H   0  0  0  0  0  0
   11.8352   -3.5929   11.4581 H   0  0  0  0  0  0
   12.6743   -4.9254   12.3122 H   0  0  0  0  0  0
   10.9025   -4.9996   12.0585 H   0  0  0  0  0  0
   10.8651    0.3422   11.6440 C   0  0  0  0  0  0
   10.4805   -0.3621   12.8163 N   0  0  0  0  0  0
   10.1473   -1.7643   12.4698 C   0  0  0  0  0  0
   11.6657   -0.2404   13.7471 C   0  0  0  0  0  0
   10.1508    0.2359   10.8103 H   0  0  0  0  0  0
   11.8567   -0.0005   11.3036 H   0  0  0  0  0  0
   10.9351    1.4094   11.9135 H   0  0  0  0  0  0
   11.0637   -2.3541   12.2997 H   0  0  0  0  0  0
    9.4755   -1.9009   11.6057 H   0  0  0  0  0  0
    9.6431   -2.1501   13.3718 H   0  0  0  0  0  0
   11.3523   -0.9336   14.5458 H   0  0  0  0  0  0
   11.9789    0.7107   14.2096 H   0  0  0  0  0  0
   12.5310   -0.6777   13.2213 H   0  0  0  0  0  0
  1  2  1  0  0  0
  2  3  1  0  0  0
  2  4  1  0  0  0
  1  5  1  0  0  0
  1  6  1  0  0  0
  1  7  1  0  0  0
  3  8  1  0  0  0
  3  9  1  0  0  0
  3 10  1  0  0  0
  4 11  1  0  0  0
  4 12  1  0  0  0
  4 13  1  0  0  0
 14 15  1  0  0  0
 15 16  1  0  0  0
 15 17  1  0  0  0
 14 18  1  0  0  0
 14 19  1  0  0  0
 14 20  1  0  0  0
 16 21  1  0  0  0
 16 22  1  0  0  0
 16 23  1  0  0  0
 17 24  1  0  0  0
 17 25  1  0  0  0
 17 26  1  0  0  0
M  END
$$$$
