


 26 24  0  0  1  0            999 V2000
    2.9796    3.5687    0.8926 C   0  0  0  0  0  0
    2.6286    2.1513    0.6449 N   0  0  0  0  0  0
    3.2450    1.6708   -0.5946 C   0  0  0  0  0  0
    3.1086    1.3712    1.7746 C   0  0  0  0  0  0
    2.3051    4.0402    1.6269 H   0  0  0  0  0  0
    2.9119    4.1267   -0.0564 H   0  0  0  0  0  0
    4.0139    3.6390    1.2691 H   0  0  0  0  0  0
    4.3399    1.6755   -0.4613 H   0  0  0  0  0  0
    2.9868    2.3679   -1.4095 H   0  0  0  0  0  0
    2.9305    0.6550   -0.8878 H   0  0  0  0  0  0
    2.9480    0.3082    1.5276 H   0  0  0  0  0  0
    2.6301    1.5829    2.7456 H   0  0  0  0  0  0
    4.1927    1.5503    1.8701 H   0  0  0  0  0  0
   -0.2386    4.7134   -3.6804 C   0  0  0  0  0  0
    0.1314    3.6712   -2.7693 N   0  0  0  0  0  0
   -0.7000    3.7954   -1.5788 C   0  0  0  0  0  0
    0.0126    2.3413   -3.4559 C   0  0  0  0  0  0
   -0.2699    5.6880   -3.1649 H   0  0  0  0  0  0
   -1.2188    4.5337   -4.1530 H   0  0  0  0  0  0
    0.5300    4.7578   -4.4703 H   0  0  0  0  0  0
   -0.5069    4.7694   -1.0985 H   0  0  0  0  0  0
   -0.4009    2.9941   -0.8823 H   0  0  0  0  0  0
   -1.7822    3.7071   -1.7728 H   0  0  0  0  0  0
   -0.9740    2.2641   -3.9431 H   0  0  0  0  0  0
    0.1514    1.4642   -2.8016 H   0  0  0  0  0  0
    0.7923    2.3253   -4.2359 H   0  0  0  0  0  0
  1  2  1  0  0  0
  2  3  1  0  0  0
  2  4  1  0  0  0
  1  5  1  0  0  0
  1  6  1  0  0  0
  1  7  1  0  0  0
  3  8  1  0  0  0
  3  9  1  0  0  0
  3 10  1  0  0  0
  4 11  1  0  0  0
  4 12  1  0  0  0
  4 13  1  0  0  0
 14 15  1  0  0  0
 15 16  1  0  0  0
 15 17  1  0  0  0
 14 18  1  0  0  0
 14 19  1  0  0  0
 14 20  1  0  0  0
 16 21  1  0  0  0
 16 22  1  0  0  0
 16 23  1  0  0  0
 17 24  1  0  0  0
 17 25  1  0  0  0
 17 26  1  0  0  0
M  END
$$$$
