


 17 15  0  0  1  0            999 V2000
    1.6087    1.5437    4.2904 C   0  0  0  0  0  0
    3.0445    1.7499    4.2810 N   0  0  0  0  0  0
    3.7107    2.0027    3.1286 C   0  0  0  0  0  0
    3.1784    2.0770    2.0310 O   0  0  0  0  0  0
    1.0807    2.4337    3.9086 H   0  0  0  0  0  0
    1.2768    1.3547    5.3252 H   0  0  0  0  0  0
    1.3316    0.6763    3.6680 H   0  0  0  0  0  0
    3.5792    1.7070    5.1521 H   0  0  0  0  0  0
    4.8084    2.1381    3.2847 H   0  0  0  0  0  0
    2.2571    2.5592   -2.5321 C   0  0  0  0  0  0
    3.6558    2.6979   -2.0177 N   0  0  0  0  0  0
    3.6821    2.5617   -0.9870 H   0  0  0  0  0  0
    4.2793    1.9907   -2.4566 H   0  0  0  0  0  0
    4.0327    3.6433   -2.2319 H   0  0  0  0  0  0
    1.8622    1.5552   -2.3025 H   0  0  0  0  0  0
    2.2347    2.7045   -3.6253 H   0  0  0  0  0  0
    1.6002    3.3113   -2.0637 H   0  0  0  0  0  0
  1  2  1  0  0  0
  2  3  1  0  0  0
  3  4  2  0  0  0
  1  5  1  0  0  0
  1  6  1  0  0  0
  1  7  1  0  0  0
  2  8  1  0  0  0
  3  9  1  0  0  0
 10 11  1  0  0  0
 11 12  1  0  0  0
 11 13  1  0  0  0
 11 14  1  0  0  0
 10 15  1  0  0  0
 10 16  1  0  0  0
 10 17  1  0  0  0
M  CHG  1  11   1
M  END
$$$$
