


 20 18  0  0  1  0            999 V2000
    2.9747    1.1996   -0.4184 C   0  0  0  0  0  0
    2.4774    0.5769    0.8913 C   0  0  0  0  0  0
    2.8844    1.3599    2.0580 C   0  0  0  0  0  0
    3.2394    2.0344    3.0061 C   0  0  0  0  0  0
    2.5673    2.2176   -0.5383 H   0  0  0  0  0  0
    2.6531    0.5884   -1.2783 H   0  0  0  0  0  0
    4.0761    1.2589   -0.4211 H   0  0  0  0  0  0
    1.3727    0.5068    0.8763 H   0  0  0  0  0  0
    2.8784   -0.4499    0.9932 H   0  0  0  0  0  0
    3.5494    2.6256    3.8512 H   0  0  0  0  0  0
   -1.4905    2.9260    2.2425 C   0  0  0  0  0  0
   -0.9877    3.5373    0.9296 C   0  0  0  0  0  0
   -1.3841    2.7404   -0.2314 C   0  0  0  0  0  0
   -1.7304    2.0547   -1.1746 C   0  0  0  0  0  0
   -2.5917    2.8621    2.2391 H   0  0  0  0  0  0
   -1.1768    3.5475    3.0981 H   0  0  0  0  0  0
   -1.0796    1.9111    2.3755 H   0  0  0  0  0  0
   -1.3923    4.5612    0.8145 H   0  0  0  0  0  0
    0.1166    3.6122    0.9506 H   0  0  0  0  0  0
   -2.0327    1.4534   -2.0154 H   0  0  0  0  0  0
  1  2  1  0  0  0
  2  3  1  0  0  0
  3  4  3  0  0  0
  1  5  1  0  0  0
  1  6  1  0  0  0
  1  7  1  0  0  0
  2  8  1  0  0  0
  2  9  1  0  0  0
  4 10  1  0  0  0
 11 12  1  0  0  0
 12 13  1  0  0  0
 13 14  3  0  0  0
 11 15  1  0  0  0
 11 16  1  0  0  0
 11 17  1  0  0  0
 12 18  1  0  0  0
 12 19  1  0  0  0
 14 20  1  0  0  0
M  END
$$$$
