


 11  9  0  0  1  0            999 V2000
    0.0000    0.0000    0.0000 C   0  0  0  0  0  0
    0.8710    1.1345   -0.5622 C   0  0  0  0  0  0
   -0.0650    1.9854   -2.2341 I   0  0  0  0  0  0
   -0.0111   -0.9286   -0.5951 H   0  0  0  0  0  0
   -1.0336    0.3756    0.0853 H   0  0  0  0  0  0
    0.3737   -0.2345    1.0109 H   0  0  0  0  0  0
    1.8692    0.7671   -0.8688 H   0  0  0  0  0  0
    1.0233    1.9708    0.1468 H   0  0  0  0  0  0
    2.8898    1.2764    3.9820 O   0  0  0  0  0  0
    2.7870    2.1969    3.6498 H   0  0  0  0  0  0
    2.1892    1.1799    4.6662 H   0  0  0  0  0  0
  1  2  1  0  0  0
  2  3  1  0  0  0
  1  4  1  0  0  0
  1  5  1  0  0  0
  1  6  1  0  0  0
  2  7  1  0  0  0
  2  8  1  0  0  0
  9 10  1  0  0  0
  9 11  1  0  0  0
M  END
$$$$
