


 24 22  0  0  1  0            999 V2000
    1.8260   -0.1969    0.0336 C   0  0  0  0  0  0
    2.4786    1.1172   -0.3891 C   0  0  0  0  0  0
    1.4895    2.0882   -1.0033 C   0  0  0  0  0  0
    0.5275    2.4292   -0.0006 O   0  0  0  0  0  0
    1.3743   -0.6965   -0.8399 H   0  0  0  0  0  0
    1.0345   -0.0058    0.7777 H   0  0  0  0  0  0
    2.5723   -0.8753    0.4800 H   0  0  0  0  0  0
    2.9472    1.6078    0.4856 H   0  0  0  0  0  0
    3.2747    0.9252   -1.1340 H   0  0  0  0  0  0
    2.0143    2.9945   -1.3621 H   0  0  0  0  0  0
    0.9926    1.6199   -1.8747 H   0  0  0  0  0  0
   -0.1215    3.0458   -0.3995 H   0  0  0  0  0  0
    2.4418    0.6383    3.8761 C   0  0  0  0  0  0
    1.1313    1.4200    3.8230 C   0  0  0  0  0  0
    1.3513    2.9209    3.6957 C   0  0  0  0  0  0
    2.0480    3.2842    2.5020 O   0  0  0  0  0  0
    3.0294    0.9462    4.7573 H   0  0  0  0  0  0
    3.0387    0.8337    2.9694 H   0  0  0  0  0  0
    2.2487   -0.4456    3.9433 H   0  0  0  0  0  0
    0.5225    1.0779    2.9641 H   0  0  0  0  0  0
    0.5446    1.2401    4.7443 H   0  0  0  0  0  0
    0.3859    3.4589    3.7596 H   0  0  0  0  0  0
    1.9926    3.2810    4.5230 H   0  0  0  0  0  0
    1.4695    3.0600    1.7434 H   0  0  0  0  0  0
  1  2  1  0  0  0
  2  3  1  0  0  0
  3  4  1  0  0  0
  1  5  1  0  0  0
  1  6  1  0  0  0
  1  7  1  0  0  0
  2  8  1  0  0  0
  2  9  1  0  0  0
  3 10  1  0  0  0
  3 11  1  0  0  0
  4 12  1  0  0  0
 13 14  1  0  0  0
 14 15  1  0  0  0
 15 16  1  0  0  0
 13 17  1  0  0  0
 13 18  1  0  0  0
 13 19  1  0  0  0
 14 20  1  0  0  0
 14 21  1  0  0  0
 15 22  1  0  0  0
 15 23  1  0  0  0
 16 24  1  0  0  0
M  END
$$$$
