


 24 22  0  0  1  0            999 V2000
    0.0000    0.0000    0.0000 C   0  0  0  0  0  0
   -0.7409   -1.2079    0.4811 C   0  0  0  0  0  0
   -2.0524   -1.3621   -0.3268 C   0  0  0  0  0  0
   -2.9541   -2.3248    0.1449 O   0  0  0  0  0  0
    0.2749   -0.0858   -1.0647 H   0  0  0  0  0  0
    0.9152   -0.0945    0.6083 H   0  0  0  0  0  0
   -0.4349    0.9990    0.1717 H   0  0  0  0  0  0
   -0.2836   -2.2140    0.4162 H   0  0  0  0  0  0
   -0.9494   -1.0012    1.5484 H   0  0  0  0  0  0
   -2.6362   -0.4220   -0.2952 H   0  0  0  0  0  0
   -1.8554   -1.6005   -1.3897 H   0  0  0  0  0  0
   -3.6515   -2.3311   -0.5436 H   0  0  0  0  0  0
   -5.5161   -2.4647    5.1421 C   0  0  0  0  0  0
   -6.1694   -2.2059    3.7959 C   0  0  0  0  0  0
   -5.3744   -2.6641    2.6166 C   0  0  0  0  0  0
   -4.2386   -1.8927    2.3694 O   0  0  0  0  0  0
   -4.5545   -1.9265    5.1899 H   0  0  0  0  0  0
   -5.3179   -3.5469    5.2207 H   0  0  0  0  0  0
   -6.1346   -2.1570    6.0019 H   0  0  0  0  0  0
   -7.1028   -2.7998    3.7576 H   0  0  0  0  0  0
   -6.4433   -1.1403    3.6735 H   0  0  0  0  0  0
   -4.9271   -3.6695    2.7366 H   0  0  0  0  0  0
   -5.9705   -2.6700    1.6838 H   0  0  0  0  0  0
   -3.7706   -2.2537    1.5877 H   0  0  0  0  0  0
  1  2  1  0  0  0
  2  3  1  0  0  0
  3  4  1  0  0  0
  1  5  1  0  0  0
  1  6  1  0  0  0
  1  7  1  0  0  0
  2  8  1  0  0  0
  2  9  1  0  0  0
  3 10  1  0  0  0
  3 11  1  0  0  0
  4 12  1  0  0  0
 13 14  1  0  0  0
 14 15  1  0  0  0
 15 16  1  0  0  0
 13 17  1  0  0  0
 13 18  1  0  0  0
 13 19  1  0  0  0
 14 20  1  0  0  0
 14 21  1  0  0  0
 15 22  1  0  0  0
 15 23  1  0  0  0
 16 24  1  0  0  0
M  END
$$$$
