


 24 22  0  0  1  0            999 V2000
   -4.1026   -0.6203   -0.9668 C   0  0  0  0  0  0
   -4.1170   -1.5740    0.2405 C   0  0  0  0  0  0
   -3.6437   -1.1593    1.6033 C   0  0  0  0  0  0
   -3.7029   -2.1846    2.5741 O   0  0  0  0  0  0
   -4.7846    0.2375   -0.8418 H   0  0  0  0  0  0
   -4.3799   -1.1588   -1.8886 H   0  0  0  0  0  0
   -3.0738   -0.2385   -1.0783 H   0  0  0  0  0  0
   -5.1963   -1.7470    0.4157 H   0  0  0  0  0  0
   -3.6565   -2.5485   -0.0115 H   0  0  0  0  0  0
   -2.6430   -0.6866    1.5776 H   0  0  0  0  0  0
   -4.3522   -0.4244    2.0314 H   0  0  0  0  0  0
   -4.6303   -2.5012    2.5652 H   0  0  0  0  0  0
    2.0024   -3.6942   -3.4517 C   0  0  0  0  0  0
    2.9741   -4.1104   -4.6389 C   0  0  0  0  0  0
    4.4988   -4.1189   -4.1969 C   0  0  0  0  0  0
    4.5474   -5.1551   -3.1585 O   0  0  0  0  0  0
    2.0505   -4.4127   -2.6162 H   0  0  0  0  0  0
    0.9585   -3.6318   -3.8025 H   0  0  0  0  0  0
    2.3087   -2.7018   -3.0803 H   0  0  0  0  0  0
    2.8061   -5.1368   -5.0179 H   0  0  0  0  0  0
    2.8951   -3.4171   -5.4983 H   0  0  0  0  0  0
    5.0374   -4.4453   -5.1073 H   0  0  0  0  0  0
    4.9162   -3.1401   -3.8916 H   0  0  0  0  0  0
    5.4634   -5.4901   -3.2538 H   0  0  0  0  0  0
  1  2  1  0  0  0
  2  3  1  0  0  0
  3  4  1  0  0  0
  1  5  1  0  0  0
  1  6  1  0  0  0
  1  7  1  0  0  0
  2  8  1  0  0  0
  2  9  1  0  0  0
  3 10  1  0  0  0
  3 11  1  0  0  0
  4 12  1  0  0  0
 13 14  1  0  0  0
 14 15  1  0  0  0
 15 16  1  0  0  0
 13 17  1  0  0  0
 13 18  1  0  0  0
 13 19  1  0  0  0
 14 20  1  0  0  0
 14 21  1  0  0  0
 15 22  1  0  0  0
 15 23  1  0  0  0
 16 24  1  0  0  0
M  END
$$$$
