


 20 19  0  0  1  0            999 V2000
    2.6616    1.5689    1.6384 C   0  0  0  0  0  0
    2.5412    0.0824    1.9843 C   0  0  0  0  0  0
    3.5394    2.0093    2.1406 H   0  0  0  0  0  0
    1.7595    2.1128    1.9656 H   0  0  0  0  0  0
    2.7764    1.7009    0.5494 H   0  0  0  0  0  0
    3.4432   -0.4615    1.6571 H   0  0  0  0  0  0
    2.4264   -0.0495    3.0734 H   0  0  0  0  0  0
    1.6634   -0.3580    1.4822 H   0  0  0  0  0  0
    0.2040    1.2279   -0.0270 C   0  0  0  0  0  0
   -0.5607    0.8271    1.0692 C   0  0  0  0  0  0
   -0.7183   -0.5304    1.3510 C   0  0  0  0  0  0
   -0.1113   -1.4871    0.5366 C   0  0  0  0  0  0
    0.6534   -1.0863   -0.5596 C   0  0  0  0  0  0
    0.8110    0.2712   -0.8414 C   0  0  0  0  0  0
    0.3280    2.2961   -0.2488 H   0  0  0  0  0  0
   -1.0384    1.5800    1.7101 H   0  0  0  0  0  0
   -1.3200   -0.8457    2.2136 H   0  0  0  0  0  0
   -0.2353   -2.5553    0.7584 H   0  0  0  0  0  0
    1.1311   -1.8391   -1.2004 H   0  0  0  0  0  0
    1.4128    0.5866   -1.7040 H   0  0  0  0  0  0
  1  2  1  0  0  0
  1  3  1  0  0  0
  1  4  1  0  0  0
  1  5  1  0  0  0
  2  6  1  0  0  0
  2  7  1  0  0  0
  2  8  1  0  0  0
  9 10  1  0  0  0
 10 11  2  0  0  0
 11 12  1  0  0  0
 12 13  2  0  0  0
 13 14  1  0  0  0
  9 14  2  0  0  0
  9 15  1  0  0  0
 10 16  1  0  0  0
 11 17  1  0  0  0
 12 18  1  0  0  0
 13 19  1  0  0  0
 14 20  1  0  0  0
M  END
$$$$
