


 20 18  0  0  1  0            999 V2000
   -1.0754    4.5606    0.3623 C   0  0  0  0  0  0
   -1.1017    3.5910    1.5276 C   0  0  0  0  0  0
   -0.2129    3.5364    2.3909 O   0  0  0  0  0  0
   -2.3936    2.8778    1.7498 C   0  0  0  0  0  0
   -2.0617    4.5659   -0.1315 H   0  0  0  0  0  0
   -0.3143    4.2551   -0.3752 H   0  0  0  0  0  0
   -0.8459    5.5850    0.7009 H   0  0  0  0  0  0
   -2.4201    2.1095    0.9587 H   0  0  0  0  0  0
   -3.1915    3.6133    1.5527 H   0  0  0  0  0  0
   -2.5949    2.3916    2.7192 H   0  0  0  0  0  0
   -4.0598   -0.1144    0.8224 C   0  0  0  0  0  0
   -4.8653   -1.4134    0.5100 C   0  0  0  0  0  0
   -5.4289   -2.0235    1.4345 O   0  0  0  0  0  0
   -4.6898   -1.9123   -0.9247 C   0  0  0  0  0  0
   -4.7912    0.5501    1.3125 H   0  0  0  0  0  0
   -3.6436    0.4073   -0.0558 H   0  0  0  0  0  0
   -3.2399   -0.3188    1.5314 H   0  0  0  0  0  0
   -5.3229   -2.8031   -1.0731 H   0  0  0  0  0  0
   -3.6321   -2.2158   -1.0005 H   0  0  0  0  0  0
   -4.9066   -1.1887   -1.7284 H   0  0  0  0  0  0
  1  2  1  0  0  0
  2  3  2  0  0  0
  2  4  1  0  0  0
  1  5  1  0  0  0
  1  6  1  0  0  0
  1  7  1  0  0  0
  4  8  1  0  0  0
  4  9  1  0  0  0
  4 10  1  0  0  0
 11 12  1  0  0  0
 12 13  2  0  0  0
 12 14  1  0  0  0
 11 15  1  0  0  0
 11 16  1  0  0  0
 11 17  1  0  0  0
 14 18  1  0  0  0
 14 19  1  0  0  0
 14 20  1  0  0  0
M  END
$$$$
