


 20 18  0  0  1  0            999 V2000
    0.0000    0.0000    0.0000 C   0  0  0  0  0  0
    0.4814   -0.4171    1.4257 C   0  0  0  0  0  0
    1.0293    0.3924    2.1950 O   0  0  0  0  0  0
    0.2707   -1.8420    1.9208 C   0  0  0  0  0  0
   -0.9816   -0.4107   -0.2905 H   0  0  0  0  0  0
    0.7450   -0.3014   -0.7555 H   0  0  0  0  0  0
   -0.0676    1.1009    0.0078 H   0  0  0  0  0  0
    1.1719   -2.3478    1.5355 H   0  0  0  0  0  0
   -0.6186   -2.3933    1.5718 H   0  0  0  0  0  0
    0.2938   -1.8733    3.0231 H   0  0  0  0  0  0
    2.7105   -1.7018   -4.5380 C   0  0  0  0  0  0
    3.0993   -1.2072   -3.1754 C   0  0  0  0  0  0
    3.4416   -1.8718   -2.2215 O   0  0  0  0  0  0
    3.2182    0.2557   -3.1411 C   0  0  0  0  0  0
    2.4564   -0.8456   -5.1854 H   0  0  0  0  0  0
    1.9135   -2.4591   -4.6273 H   0  0  0  0  0  0
    3.6567   -2.1431   -4.8936 H   0  0  0  0  0  0
    2.5481    0.5128   -2.3036 H   0  0  0  0  0  0
    2.9211    0.8469   -4.0236 H   0  0  0  0  0  0
    4.2496    0.5315   -2.8639 H   0  0  0  0  0  0
  1  2  1  0  0  0
  2  3  2  0  0  0
  2  4  1  0  0  0
  1  5  1  0  0  0
  1  6  1  0  0  0
  1  7  1  0  0  0
  4  8  1  0  0  0
  4  9  1  0  0  0
  4 10  1  0  0  0
 11 12  1  0  0  0
 12 13  2  0  0  0
 12 14  1  0  0  0
 11 15  1  0  0  0
 11 16  1  0  0  0
 11 17  1  0  0  0
 14 18  1  0  0  0
 14 19  1  0  0  0
 14 20  1  0  0  0
M  END
$$$$
