


 20 18  0  0  1  0            999 V2000
   -8.1174   10.4510  -12.1499 C   0  0  0  0  0  0
   -7.7187    9.1489  -11.5900 C   0  0  0  0  0  0
   -7.0074    8.3367  -12.2064 O   0  0  0  0  0  0
   -7.9756    8.9046  -10.1103 C   0  0  0  0  0  0
   -7.2512   11.1046  -12.3477 H   0  0  0  0  0  0
   -8.8174   10.9858  -11.4861 H   0  0  0  0  0  0
   -8.6275   10.2439  -13.1056 H   0  0  0  0  0  0
   -7.2267    9.5228   -9.5872 H   0  0  0  0  0  0
   -7.8281    7.8512   -9.8185 H   0  0  0  0  0  0
   -8.9813    9.2217   -9.7869 H   0  0  0  0  0  0
  -10.0644    6.1845  -12.4474 C   0  0  0  0  0  0
  -10.3714    6.1039  -11.0083 C   0  0  0  0  0  0
  -10.8638    5.1035  -10.5547 O   0  0  0  0  0  0
  -10.0230    7.2787  -10.1344 C   0  0  0  0  0  0
  -10.7904    6.8028  -13.0016 H   0  0  0  0  0  0
  -10.0186    5.1883  -12.9188 H   0  0  0  0  0  0
   -9.0702    6.6559  -12.5237 H   0  0  0  0  0  0
   -9.1762    7.8844  -10.4985 H   0  0  0  0  0  0
   -9.8210    6.9825   -9.0913 H   0  0  0  0  0  0
  -10.9340    7.9002  -10.1535 H   0  0  0  0  0  0
  1  2  1  0  0  0
  2  3  2  0  0  0
  2  4  1  0  0  0
  1  5  1  0  0  0
  1  6  1  0  0  0
  1  7  1  0  0  0
  4  8  1  0  0  0
  4  9  1  0  0  0
  4 10  1  0  0  0
 11 12  1  0  0  0
 12 13  2  0  0  0
 12 14  1  0  0  0
 11 15  1  0  0  0
 11 16  1  0  0  0
 11 17  1  0  0  0
 14 18  1  0  0  0
 14 19  1  0  0  0
 14 20  1  0  0  0
M  END
$$$$
