


 20 18  0  0  1  0            999 V2000
   -3.4683    4.5320    0.2044 C   0  0  0  0  0  0
   -2.4076    3.4965   -0.2508 C   0  0  0  0  0  0
   -2.6834    2.3848   -0.7037 O   0  0  0  0  0  0
   -1.0245    3.9909   -0.1473 C   0  0  0  0  0  0
   -4.3136    4.0141    0.6879 H   0  0  0  0  0  0
   -3.8493    5.0882   -0.6685 H   0  0  0  0  0  0
   -3.0407    5.2527    0.9215 H   0  0  0  0  0  0
   -0.9130    5.0502    0.1389 H   0  0  0  0  0  0
   -0.6095    3.8545   -1.1602 H   0  0  0  0  0  0
   -0.4430    3.3729    0.5573 H   0  0  0  0  0  0
   -4.3250    1.3452    2.7044 C   0  0  0  0  0  0
   -2.8693    1.1242    3.1693 C   0  0  0  0  0  0
   -2.6347    0.1870    3.9611 O   0  0  0  0  0  0
   -1.8148    2.2825    2.9306 C   0  0  0  0  0  0
   -4.6489    0.5399    2.0238 H   0  0  0  0  0  0
   -4.4377    2.3115    2.1848 H   0  0  0  0  0  0
   -4.9826    1.3431    3.5900 H   0  0  0  0  0  0
   -2.2397    3.0279    2.2375 H   0  0  0  0  0  0
   -0.8786    1.8924    2.4971 H   0  0  0  0  0  0
   -1.5789    2.7834    3.8846 H   0  0  0  0  0  0
  1  2  1  0  0  0
  2  3  2  0  0  0
  2  4  1  0  0  0
  1  5  1  0  0  0
  1  6  1  0  0  0
  1  7  1  0  0  0
  4  8  1  0  0  0
  4  9  1  0  0  0
  4 10  1  0  0  0
 11 12  1  0  0  0
 12 13  2  0  0  0
 12 14  1  0  0  0
 11 15  1  0  0  0
 11 16  1  0  0  0
 11 17  1  0  0  0
 14 18  1  0  0  0
 14 19  1  0  0  0
 14 20  1  0  0  0
M  END
$$$$
