


 22 20  0  0  1  0            999 V2000
    0.2993    0.8992    3.3545 C   0  0  0  0  0  0
    0.2519    0.6713    1.9187 N   0  0  0  0  0  0
    0.5817   -0.7144    1.6235 C   0  0  0  0  0  0
   -1.0731    0.9871    1.4081 C   0  0  0  0  0  0
    1.3131    0.6779    3.7287 H   0  0  0  0  0  0
   -0.4222    0.2663    3.8980 H   0  0  0  0  0  0
    0.0692    1.9569    3.5667 H   0  0  0  0  0  0
   -0.1276   -1.4173    2.0919 H   0  0  0  0  0  0
    0.5642   -0.8720    0.5320 H   0  0  0  0  0  0
    1.5958   -0.9381    1.9951 H   0  0  0  0  0  0
   -1.8542    0.3580    1.8672 H   0  0  0  0  0  0
   -1.3053    2.0449    1.6174 H   0  0  0  0  0  0
   -1.0930    0.8320    0.3162 H   0  0  0  0  0  0
    2.3722    1.1926   -0.9720 C   0  0  0  0  0  0
    3.2401    0.3906   -0.1961 O   0  0  0  0  0  0
    3.7083    1.1098    0.9274 C   0  0  0  0  0  0
    2.0363    0.5888   -1.8318 H   0  0  0  0  0  0
    2.8827    2.0932   -1.3527 H   0  0  0  0  0  0
    1.4860    1.5076   -0.3957 H   0  0  0  0  0  0
    4.2760    2.0069    0.6279 H   0  0  0  0  0  0
    2.8793    1.4213    1.5849 H   0  0  0  0  0  0
    4.3780    0.4437    1.4970 H   0  0  0  0  0  0
  1  2  1  0  0  0
  2  3  1  0  0  0
  2  4  1  0  0  0
  1  5  1  0  0  0
  1  6  1  0  0  0
  1  7  1  0  0  0
  3  8  1  0  0  0
  3  9  1  0  0  0
  3 10  1  0  0  0
  4 11  1  0  0  0
  4 12  1  0  0  0
  4 13  1  0  0  0
 14 15  1  0  0  0
 15 16  1  0  0  0
 14 17  1  0  0  0
 14 18  1  0  0  0
 14 19  1  0  0  0
 16 20  1  0  0  0
 16 21  1  0  0  0
 16 22  1  0  0  0
M  END
$$$$
