


 15 13  0  0  1  0            999 V2000
    1.4563    0.0525    3.5322 C   0  0  0  0  0  0
    0.9814   -0.3425    2.1410 C   0  0  0  0  0  0
    0.4606    1.0714    1.1211 S   0  0  0  0  0  0
    2.2929    0.7681    3.4641 H   0  0  0  0  0  0
    1.7995   -0.8384    4.0845 H   0  0  0  0  0  0
    0.6358    0.5235    4.0993 H   0  0  0  0  0  0
    1.8048   -0.8041    1.5629 H   0  0  0  0  0  0
    0.1538   -1.0759    2.1924 H   0  0  0  0  0  0
   -0.5402    1.4779    1.9308 H   0  0  0  0  0  0
    4.2074    4.1848    1.4326 C   0  0  0  0  0  0
    3.6998    3.1389    2.2553 O   0  0  0  0  0  0
    5.1697    4.4941    1.8742 H   0  0  0  0  0  0
    3.5346    5.0585    1.4079 H   0  0  0  0  0  0
    4.3870    3.8497    0.3972 H   0  0  0  0  0  0
    2.8426    2.8494    1.8786 H   0  0  0  0  0  0
  1  2  1  0  0  0
  2  3  1  0  0  0
  1  4  1  0  0  0
  1  5  1  0  0  0
  1  6  1  0  0  0
  2  7  1  0  0  0
  2  8  1  0  0  0
  3  9  1  0  0  0
 10 11  1  0  0  0
 10 12  1  0  0  0
 10 13  1  0  0  0
 10 14  1  0  0  0
 11 15  1  0  0  0
M  END
$$$$
