


 18 16  0  0  1  0            999 V2000
    0.0000    0.0000    0.0000 C   0  0  0  0  0  0
   -1.2758   -0.6461    0.3033 N   0  0  0  0  0  0
   -2.4470   -0.2951   -0.2815 C   0  0  0  0  0  0
   -2.6071    0.4937   -1.2000 O   0  0  0  0  0  0
   -3.8135   -0.8612    0.3044 C   0  0  0  0  0  0
   -4.1600    0.1702    1.4784 C   0  0  0  0  0  0
   -5.0236    1.0798    1.3680 O   0  0  0  0  0  0
   -3.5015   -0.0831    2.6667 O   0  0  0  0  0  0
   -0.0777    0.6167   -0.9112 H   0  0  0  0  0  0
    0.7679   -0.7746   -0.1639 H   0  0  0  0  0  0
    0.3231    0.6446    0.8346 H   0  0  0  0  0  0
   -1.2054   -1.5374    0.8006 H   0  0  0  0  0  0
   -4.6189   -0.6902   -0.4356 H   0  0  0  0  0  0
   -3.9469   -1.8795    0.7177 H   0  0  0  0  0  0
   -2.7722   -0.7607    2.6996 H   0  0  0  0  0  0
   -0.6886   -6.9250    0.5318 O   0  0  0  0  0  0
   -1.3937   -7.2223   -0.0868 H   0  0  0  0  0  0
    0.0878   -6.7445   -0.0452 H   0  0  0  0  0  0
  1  2  1  0  0  0
  2  3  1  0  0  0
  3  4  2  0  0  0
  3  5  1  0  0  0
  5  6  1  0  0  0
  6  7  2  0  0  0
  6  8  1  0  0  0
  1  9  1  0  0  0
  1 10  1  0  0  0
  1 11  1  0  0  0
  2 12  1  0  0  0
  5 13  1  0  0  0
  5 14  1  0  0  0
  8 15  1  0  0  0
 16 17  1  0  0  0
 16 18  1  0  0  0
M  END
$$$$
