


 21 20  0  0  1  0            999 V2000
    3.5541    2.6981    0.9357 C   0  0  0  0  0  0
    2.7126    3.3008    2.0282 C   0  0  0  0  0  0
    1.8621    4.3090    1.7976 C   0  0  0  0  0  0
    2.8877    2.6985    3.3962 C   0  0  0  0  0  0
    3.3633    3.1972   -0.0292 H   0  0  0  0  0  0
    3.3222    1.6250    0.8287 H   0  0  0  0  0  0
    4.6242    2.8040    1.1811 H   0  0  0  0  0  0
    1.2567    4.7360    2.6054 H   0  0  0  0  0  0
    1.7471    4.7357    0.7947 H   0  0  0  0  0  0
    2.6334    1.6255    3.3719 H   0  0  0  0  0  0
    3.9354    2.8044    3.7243 H   0  0  0  0  0  0
    2.2361    3.1979    4.1328 H   0  0  0  0  0  0
   -0.6216   -0.1454    2.1717 C   0  0  0  0  0  0
   -0.9418   -1.3381    1.6955 N   0  0  0  0  0  0
   -0.6097   -1.2944    0.3626 C   0  0  0  0  0  0
   -0.0842   -0.0645    0.0305 C   0  0  0  0  0  0
   -0.1000    0.6553    1.1992 N   0  0  0  0  0  0
    0.2215    1.6190    1.3192 H   0  0  0  0  0  0
   -0.7447    0.1886    3.2019 H   0  0  0  0  0  0
   -0.7658   -2.1518   -0.2921 H   0  0  0  0  0  0
    0.2890    0.3518   -0.9052 H   0  0  0  0  0  0
  1  2  1  0  0  0
  2  3  2  0  0  0
  2  4  1  0  0  0
  1  5  1  0  0  0
  1  6  1  0  0  0
  1  7  1  0  0  0
  3  8  1  0  0  0
  3  9  1  0  0  0
  4 10  1  0  0  0
  4 11  1  0  0  0
  4 12  1  0  0  0
 13 14  2  0  0  0
 14 15  1  0  0  0
 15 16  2  0  0  0
 16 17  1  0  0  0
 17 18  1  0  0  0
 13 17  1  0  0  0
 13 19  1  0  0  0
 15 20  1  0  0  0
 16 21  1  0  0  0
M  END
$$$$
