


 22 21  0  0  1  0            999 V2000
   -0.0892    1.9082    1.9223 C   0  0  0  0  0  0
   -1.3188    2.2559    1.0921 C   0  0  0  0  0  0
   -0.6733    2.7882   -0.1864 C   0  0  0  0  0  0
    0.5100    3.5637    0.3796 C   0  0  0  0  0  0
    0.9202    2.8617    1.5617 O   0  0  0  0  0  0
    0.2729    0.8874    1.6934 H   0  0  0  0  0  0
   -0.2567    1.9688    3.0149 H   0  0  0  0  0  0
   -1.9892    1.3898    0.9312 H   0  0  0  0  0  0
   -1.9092    3.0514    1.5860 H   0  0  0  0  0  0
   -1.3453    3.4163   -0.8024 H   0  0  0  0  0  0
   -0.3223    1.9502   -0.8189 H   0  0  0  0  0  0
    0.2192    4.5971    0.6499 H   0  0  0  0  0  0
    1.3736    3.6265   -0.3101 H   0  0  0  0  0  0
    5.2169   -2.1931   -1.9971 C   0  0  0  0  0  0
    4.1224   -1.3020   -1.4519 C   0  0  0  0  0  0
    2.9656   -1.3408   -1.8475 O   0  0  0  0  0  0
    4.5241   -0.4382   -0.4719 N   0  0  0  0  0  0
    4.7949   -2.8489   -2.7772 H   0  0  0  0  0  0
    5.6440   -2.8245   -1.1999 H   0  0  0  0  0  0
    6.0278   -1.5928   -2.4428 H   0  0  0  0  0  0
    5.4923   -0.4082   -0.1432 H   0  0  0  0  0  0
    3.8261    0.1895   -0.0654 H   0  0  0  0  0  0
  1  2  1  0  0  0
  2  3  1  0  0  0
  3  4  1  0  0  0
  4  5  1  0  0  0
  1  5  1  0  0  0
  1  6  1  0  0  0
  1  7  1  0  0  0
  2  8  1  0  0  0
  2  9  1  0  0  0
  3 10  1  0  0  0
  3 11  1  0  0  0
  4 12  1  0  0  0
  4 13  1  0  0  0
 14 15  1  0  0  0
 15 16  2  0  0  0
 15 17  1  0  0  0
 14 18  1  0  0  0
 14 19  1  0  0  0
 14 20  1  0  0  0
 17 21  1  0  0  0
 17 22  1  0  0  0
M  END
$$$$
