


 26 24  0  0  1  0            999 V2000
    5.5459   12.8526   -4.8900 C   0  0  0  0  0  0
    4.0993   12.9515   -5.4053 C   0  0  0  0  0  0
    3.8581   13.5443   -6.7987 C   0  0  0  0  0  0
    4.8376   13.8143   -7.4994 O   0  0  0  0  0  0
    2.4897   13.7353   -7.3238 C   0  0  0  0  0  0
    5.6598   12.5983   -3.8227 H   0  0  0  0  0  0
    6.1220   13.7703   -5.0964 H   0  0  0  0  0  0
    5.9652   12.0306   -5.4942 H   0  0  0  0  0  0
    3.6098   11.9654   -5.2903 H   0  0  0  0  0  0
    3.5382   13.6798   -4.7888 H   0  0  0  0  0  0
    2.7334   13.9063   -8.3859 H   0  0  0  0  0  0
    1.9130   14.5988   -6.9517 H   0  0  0  0  0  0
    1.8601   12.8328   -7.2481 H   0  0  0  0  0  0
    9.7734   11.7747   -5.3856 C   0  0  0  0  0  0
    8.6215   12.3620   -6.2345 C   0  0  0  0  0  0
    8.2254   13.7557   -6.0075 C   0  0  0  0  0  0
    8.5664   14.3097   -4.9677 O   0  0  0  0  0  0
    7.3542   14.3617   -7.0798 C   0  0  0  0  0  0
   10.2138   10.8330   -5.7541 H   0  0  0  0  0  0
    9.3841   11.6062   -4.3674 H   0  0  0  0  0  0
   10.5672   12.5389   -5.3368 H   0  0  0  0  0  0
    8.8581   12.1071   -7.2855 H   0  0  0  0  0  0
    7.6658   11.8674   -5.9751 H   0  0  0  0  0  0
    7.2261   13.5937   -7.8611 H   0  0  0  0  0  0
    7.7745   15.2695   -7.5444 H   0  0  0  0  0  0
    6.3635   14.6068   -6.6616 H   0  0  0  0  0  0
  1  2  1  0  0  0
  2  3  1  0  0  0
  3  4  2  0  0  0
  3  5  1  0  0  0
  1  6  1  0  0  0
  1  7  1  0  0  0
  1  8  1  0  0  0
  2  9  1  0  0  0
  2 10  1  0  0  0
  5 11  1  0  0  0
  5 12  1  0  0  0
  5 13  1  0  0  0
 14 15  1  0  0  0
 15 16  1  0  0  0
 16 17  2  0  0  0
 16 18  1  0  0  0
 14 19  1  0  0  0
 14 20  1  0  0  0
 14 21  1  0  0  0
 15 22  1  0  0  0
 15 23  1  0  0  0
 18 24  1  0  0  0
 18 25  1  0  0  0
 18 26  1  0  0  0
M  END
$$$$
