


 26 24  0  0  1  0            999 V2000
    0.0000    0.0000    0.0000 C   0  0  0  0  0  0
   -0.2016    1.1289   -0.9390 C   0  0  0  0  0  0
   -0.3584    0.7083   -2.3967 C   0  0  0  0  0  0
    0.5255    0.8637   -3.2734 O   0  0  0  0  0  0
   -1.7117    0.1556   -2.8809 C   0  0  0  0  0  0
    0.9914   -0.4641   -0.1352 H   0  0  0  0  0  0
   -0.7716   -0.7807   -0.1079 H   0  0  0  0  0  0
   -0.0585    0.4138    1.0208 H   0  0  0  0  0  0
   -1.1604    1.5533   -0.5840 H   0  0  0  0  0  0
    0.5795    1.9013   -0.8023 H   0  0  0  0  0  0
   -1.5333   -0.3559   -3.8417 H   0  0  0  0  0  0
   -2.5448    0.8668   -3.0103 H   0  0  0  0  0  0
   -2.0054   -0.5976   -2.1305 H   0  0  0  0  0  0
   -4.4764   -2.3235   -5.8514 C   0  0  0  0  0  0
   -3.3007   -3.2952   -5.5977 C   0  0  0  0  0  0
   -3.2199   -3.6488   -4.1466 C   0  0  0  0  0  0
   -2.5420   -2.9843   -3.3683 O   0  0  0  0  0  0
   -4.0035   -4.8678   -3.6441 C   0  0  0  0  0  0
   -4.8854   -2.4610   -6.8665 H   0  0  0  0  0  0
   -4.0930   -1.2930   -5.7632 H   0  0  0  0  0  0
   -5.2925   -2.4588   -5.1219 H   0  0  0  0  0  0
   -3.3528   -4.2441   -6.1654 H   0  0  0  0  0  0
   -2.3516   -2.7934   -5.8674 H   0  0  0  0  0  0
   -4.7568   -5.1848   -4.3849 H   0  0  0  0  0  0
   -4.5216   -4.6016   -2.7074 H   0  0  0  0  0  0
   -3.3283   -5.7167   -3.4437 H   0  0  0  0  0  0
  1  2  1  0  0  0
  2  3  1  0  0  0
  3  4  2  0  0  0
  3  5  1  0  0  0
  1  6  1  0  0  0
  1  7  1  0  0  0
  1  8  1  0  0  0
  2  9  1  0  0  0
  2 10  1  0  0  0
  5 11  1  0  0  0
  5 12  1  0  0  0
  5 13  1  0  0  0
 14 15  1  0  0  0
 15 16  1  0  0  0
 16 17  2  0  0  0
 16 18  1  0  0  0
 14 19  1  0  0  0
 14 20  1  0  0  0
 14 21  1  0  0  0
 15 22  1  0  0  0
 15 23  1  0  0  0
 18 24  1  0  0  0
 18 25  1  0  0  0
 18 26  1  0  0  0
M  END
$$$$
