


 26 24  0  0  1  0            999 V2000
    5.5459   12.8526   -4.8900 C   0  0  0  0  0  0
    4.0993   12.9515   -5.4053 C   0  0  0  0  0  0
    3.8581   13.5443   -6.7987 C   0  0  0  0  0  0
    4.8376   13.8143   -7.4994 O   0  0  0  0  0  0
    2.4897   13.7353   -7.3238 C   0  0  0  0  0  0
    5.6598   12.5983   -3.8227 H   0  0  0  0  0  0
    6.1220   13.7703   -5.0964 H   0  0  0  0  0  0
    5.9652   12.0306   -5.4942 H   0  0  0  0  0  0
    3.6098   11.9654   -5.2903 H   0  0  0  0  0  0
    3.5382   13.6798   -4.7888 H   0  0  0  0  0  0
    2.7334   13.9063   -8.3859 H   0  0  0  0  0  0
    1.9130   14.5988   -6.9517 H   0  0  0  0  0  0
    1.8601   12.8328   -7.2481 H   0  0  0  0  0  0
   11.6507   12.0668   -5.3724 C   0  0  0  0  0  0
   10.4989   12.6541   -6.2214 C   0  0  0  0  0  0
   10.1028   14.0478   -5.9943 C   0  0  0  0  0  0
   10.4438   14.6019   -4.9546 O   0  0  0  0  0  0
    9.2316   14.6538   -7.0666 C   0  0  0  0  0  0
   12.0912   11.1251   -5.7410 H   0  0  0  0  0  0
   11.2615   11.8984   -4.3542 H   0  0  0  0  0  0
   12.4445   12.8311   -5.3237 H   0  0  0  0  0  0
   10.7354   12.3992   -7.2723 H   0  0  0  0  0  0
    9.5432   12.1595   -5.9619 H   0  0  0  0  0  0
    9.1035   13.8858   -7.8479 H   0  0  0  0  0  0
    9.6518   15.5616   -7.5313 H   0  0  0  0  0  0
    8.2408   14.8990   -6.6485 H   0  0  0  0  0  0
  1  2  1  0  0  0
  2  3  1  0  0  0
  3  4  2  0  0  0
  3  5  1  0  0  0
  1  6  1  0  0  0
  1  7  1  0  0  0
  1  8  1  0  0  0
  2  9  1  0  0  0
  2 10  1  0  0  0
  5 11  1  0  0  0
  5 12  1  0  0  0
  5 13  1  0  0  0
 14 15  1  0  0  0
 15 16  1  0  0  0
 16 17  2  0  0  0
 16 18  1  0  0  0
 14 19  1  0  0  0
 14 20  1  0  0  0
 14 21  1  0  0  0
 15 22  1  0  0  0
 15 23  1  0  0  0
 18 24  1  0  0  0
 18 25  1  0  0  0
 18 26  1  0  0  0
M  END
$$$$
