


 26 24  0  0  1  0            999 V2000
   -3.0617   -2.5768   -5.8269 C   0  0  0  0  0  0
   -2.8571   -1.5089   -4.7418 C   0  0  0  0  0  0
   -1.5037   -1.6727   -4.0430 C   0  0  0  0  0  0
   -0.6978   -0.7068   -3.9984 O   0  0  0  0  0  0
   -1.3764   -2.9272   -3.2423 C   0  0  0  0  0  0
   -3.2924   -3.5186   -5.3011 H   0  0  0  0  0  0
   -2.1226   -2.7092   -6.3900 H   0  0  0  0  0  0
   -3.8741   -2.3652   -6.5423 H   0  0  0  0  0  0
   -2.8263   -0.5371   -5.2711 H   0  0  0  0  0  0
   -3.6353   -1.4406   -3.9575 H   0  0  0  0  0  0
   -1.7057   -3.8150   -3.8079 H   0  0  0  0  0  0
   -1.9958   -2.8391   -2.3338 H   0  0  0  0  0  0
   -0.3260   -3.0729   -2.9391 H   0  0  0  0  0  0
   -3.3138   -4.2226    3.7721 C   0  0  0  0  0  0
   -2.2752   -4.6841    2.7272 C   0  0  0  0  0  0
   -2.8997   -5.1446    1.4243 C   0  0  0  0  0  0
   -3.8410   -5.8958    1.3165 O   0  0  0  0  0  0
   -2.1829   -4.5264    0.2301 C   0  0  0  0  0  0
   -4.0979   -4.9877    3.9004 H   0  0  0  0  0  0
   -3.7989   -3.2477    3.5966 H   0  0  0  0  0  0
   -2.7268   -4.1609    4.7039 H   0  0  0  0  0  0
   -1.6218   -3.8442    2.4222 H   0  0  0  0  0  0
   -1.6249   -5.4958    3.1064 H   0  0  0  0  0  0
   -1.1586   -4.2670    0.5468 H   0  0  0  0  0  0
   -2.6704   -3.6181   -0.1622 H   0  0  0  0  0  0
   -2.1223   -5.2714   -0.5810 H   0  0  0  0  0  0
  1  2  1  0  0  0
  2  3  1  0  0  0
  3  4  2  0  0  0
  3  5  1  0  0  0
  1  6  1  0  0  0
  1  7  1  0  0  0
  1  8  1  0  0  0
  2  9  1  0  0  0
  2 10  1  0  0  0
  5 11  1  0  0  0
  5 12  1  0  0  0
  5 13  1  0  0  0
 14 15  1  0  0  0
 15 16  1  0  0  0
 16 17  2  0  0  0
 16 18  1  0  0  0
 14 19  1  0  0  0
 14 20  1  0  0  0
 14 21  1  0  0  0
 15 22  1  0  0  0
 15 23  1  0  0  0
 18 24  1  0  0  0
 18 25  1  0  0  0
 18 26  1  0  0  0
M  END
$$$$
