


 13 12  0  0  1  0            999 V2000
    3.3769   -0.3021    1.0860 O   0  0  0  0  0  0
    3.4976   -0.6886    0.1892 H   0  0  0  0  0  0
    4.1343    0.3168    1.1934 H   0  0  0  0  0  0
    0.0000    0.0000    0.0000 C   0  0  0  0  0  0
   -0.8238    0.1288   -1.0740 N   0  0  0  0  0  0
   -0.9622    1.0724   -1.4787 H   0  0  0  0  0  0
   -1.7140   -0.8925   -1.1436 C   0  0  0  0  0  0
   -1.4938   -1.6117    0.0335 C   0  0  0  0  0  0
   -0.3516   -1.0872    0.5650 N   0  0  0  0  0  0
    0.2155   -1.5394    1.3047 H   0  0  0  0  0  0
    0.8295    0.6474    0.2844 H   0  0  0  0  0  0
   -2.4478   -0.9863   -1.9441 H   0  0  0  0  0  0
   -2.0732   -2.4876    0.3256 H   0  0  0  0  0  0
  1  2  1  0  0  0
  1  3  1  0  0  0
  4  5  1  0  0  0
  5  6  1  0  0  0
  5  7  1  0  0  0
  7  8  2  0  0  0
  8  9  1  0  0  0
  9 10  1  0  0  0
  4  9  2  0  0  0
  4 11  1  0  0  0
  7 12  1  0  0  0
  8 13  1  0  0  0
M  CHG  1   9   1
M  END
$$$$
