


 17 15  0  0  1  0            999 V2000
   -0.2371    1.0191    4.3987 C   0  0  0  0  0  0
    0.4025    2.3148    3.9497 C   0  0  0  0  0  0
   -0.4905    3.0341    2.5757 Cl  0  0  0  0  0  0
    0.3328    0.5991    5.2446 H   0  0  0  0  0  0
   -0.2429    0.2822    3.5780 H   0  0  0  0  0  0
   -1.2767    1.1901    4.7253 H   0  0  0  0  0  0
    0.4141    3.0753    4.7540 H   0  0  0  0  0  0
    1.4457    2.1692    3.6091 H   0  0  0  0  0  0
    2.5578    3.1293   -1.0204 C   0  0  0  0  0  0
    3.1838    2.5890    0.2576 C   0  0  0  0  0  0
    2.8319    0.8284    0.5523 S   0  0  0  0  0  0
    2.9015    2.5480   -1.8925 H   0  0  0  0  0  0
    2.8424    4.1849   -1.1669 H   0  0  0  0  0  0
    1.4579    3.0658   -0.9666 H   0  0  0  0  0  0
    4.2884    2.6386    0.2035 H   0  0  0  0  0  0
    2.8634    3.1749    1.1405 H   0  0  0  0  0  0
    1.4901    0.9559    0.6283 H   0  0  0  0  0  0
  1  2  1  0  0  0
  2  3  1  0  0  0
  1  4  1  0  0  0
  1  5  1  0  0  0
  1  6  1  0  0  0
  2  7  1  0  0  0
  2  8  1  0  0  0
  9 10  1  0  0  0
 10 11  1  0  0  0
  9 12  1  0  0  0
  9 13  1  0  0  0
  9 14  1  0  0  0
 10 15  1  0  0  0
 10 16  1  0  0  0
 11 17  1  0  0  0
M  END
$$$$
