


 25 25  0  0  1  0            999 V2000
    2.9401   -0.8366    3.7313 C   0  0  0  0  0  0
    1.7867   -0.1485    3.0453 C   0  0  0  0  0  0
    0.9875    0.7718    3.7326 C   0  0  0  0  0  0
   -0.1003    1.3857    3.1116 C   0  0  0  0  0  0
   -0.4061    1.0880    1.7837 C   0  0  0  0  0  0
    0.3838    0.1757    1.0842 C   0  0  0  0  0  0
    1.4698   -0.4340    1.7126 C   0  0  0  0  0  0
    3.3705   -0.1836    4.5092 H   0  0  0  0  0  0
    3.7302   -1.0832    3.0023 H   0  0  0  0  0  0
    2.5962   -1.7705    4.2068 H   0  0  0  0  0  0
    1.2246    1.0145    4.7769 H   0  0  0  0  0  0
   -0.7124    2.1068    3.6692 H   0  0  0  0  0  0
   -1.2599    1.5718    1.2911 H   0  0  0  0  0  0
    0.1548   -0.0613    0.0369 H   0  0  0  0  0  0
    2.0895   -1.1479    1.1541 H   0  0  0  0  0  0
    4.4702    3.3202    1.7150 C   0  0  0  0  0  0
    5.0969    4.4862    1.5308 N   0  0  0  0  0  0
    6.0710    4.6750    1.8288 H   0  0  0  0  0  0
    4.2678    5.3792    0.8979 C   0  0  0  0  0  0
    3.0833    4.7241    0.6886 C   0  0  0  0  0  0
    3.2436    3.4613    1.2033 N   0  0  0  0  0  0
    2.5256    2.7144    1.2024 H   0  0  0  0  0  0
    4.8795    2.4285    2.1897 H   0  0  0  0  0  0
    4.5777    6.3941    0.6490 H   0  0  0  0  0  0
    2.1558    5.0549    0.2211 H   0  0  0  0  0  0
  1  2  1  0  0  0
  2  3  1  0  0  0
  3  4  2  0  0  0
  4  5  1  0  0  0
  5  6  2  0  0  0
  6  7  1  0  0  0
  2  7  2  0  0  0
  1  8  1  0  0  0
  1  9  1  0  0  0
  1 10  1  0  0  0
  3 11  1  0  0  0
  4 12  1  0  0  0
  5 13  1  0  0  0
  6 14  1  0  0  0
  7 15  1  0  0  0
 16 17  1  0  0  0
 17 18  1  0  0  0
 17 19  1  0  0  0
 19 20  2  0  0  0
 20 21  1  0  0  0
 21 22  1  0  0  0
 16 21  2  0  0  0
 16 23  1  0  0  0
 19 24  1  0  0  0
 20 25  1  0  0  0
M  CHG  1  21   1
M  END
$$$$
