


 13 12  0  0  1  0            999 V2000
    1.2186    1.9168    0.3480 O   0  0  0  0  0  0
    0.6087    1.3153    0.8322 H   0  0  0  0  0  0
    0.6443    2.3815   -0.3020 H   0  0  0  0  0  0
    0.0000    0.0000    0.0000 N   0  0  0  0  0  0
   -1.1046   -0.6094    0.4638 C   0  0  0  0  0  0
   -1.6588   -1.7066   -0.2601 C   0  0  0  0  0  0
   -1.0046   -2.3477   -1.2874 N   0  0  0  0  0  0
    0.2115   -1.7885   -1.7002 C   0  0  0  0  0  0
    0.6770   -0.6032   -1.0202 C   0  0  0  0  0  0
   -1.5336   -0.1447    1.3614 H   0  0  0  0  0  0
   -2.5800   -2.1669    0.1207 H   0  0  0  0  0  0
    0.7583   -2.1617   -2.5761 H   0  0  0  0  0  0
    1.6149   -0.1151   -1.3167 H   0  0  0  0  0  0
  1  2  1  0  0  0
  1  3  1  0  0  0
  4  5  1  0  0  0
  5  6  2  0  0  0
  6  7  1  0  0  0
  7  8  2  0  0  0
  8  9  1  0  0  0
  4  9  2  0  0  0
  5 10  1  0  0  0
  6 11  1  0  0  0
  8 12  1  0  0  0
  9 13  1  0  0  0
M  END
$$$$
