


 13 12  0  0  1  0            999 V2000
    0.3752   -1.8764   -2.4980 O   0  0  0  0  0  0
    1.1860   -1.3290   -2.6039 H   0  0  0  0  0  0
   -0.3684   -1.2385   -2.5903 H   0  0  0  0  0  0
    0.0000    0.0000    0.0000 N   0  0  0  0  0  0
   -1.3321   -0.2612   -0.1014 C   0  0  0  0  0  0
   -2.1609   -0.2834    1.0810 C   0  0  0  0  0  0
   -1.6853   -0.1833    2.3515 N   0  0  0  0  0  0
   -0.3627    0.0938    2.4105 C   0  0  0  0  0  0
    0.4449    0.2459    1.2519 C   0  0  0  0  0  0
   -1.6560   -0.4494   -1.1336 H   0  0  0  0  0  0
   -3.1632   -0.7240    1.1632 H   0  0  0  0  0  0
    0.0002    0.3037    3.4253 H   0  0  0  0  0  0
    1.5015    0.5439    1.2332 H   0  0  0  0  0  0
  1  2  1  0  0  0
  1  3  1  0  0  0
  4  5  1  0  0  0
  5  6  2  0  0  0
  6  7  1  0  0  0
  7  8  2  0  0  0
  8  9  1  0  0  0
  4  9  2  0  0  0
  5 10  1  0  0  0
  6 11  1  0  0  0
  8 12  1  0  0  0
  9 13  1  0  0  0
M  END
$$$$
