


 34 32  0  0  1  0            999 V2000
   -3.2348   -1.9177   -4.1447 C   0  0  0  0  0  0
   -3.9975   -0.7139   -3.5528 C   0  0  0  0  0  0
   -4.4296    0.2095   -4.7035 C   0  0  0  0  0  0
   -5.2417   -1.2110   -2.7500 C   0  0  0  0  0  0
   -2.9831    0.1092   -2.6200 C   0  0  0  0  0  0
   -3.0939   -2.6992   -3.3792 H   0  0  0  0  0  0
   -2.2486   -1.6503   -4.5601 H   0  0  0  0  0  0
   -3.8587   -2.3285   -4.9562 H   0  0  0  0  0  0
   -3.5686    0.4515   -5.3490 H   0  0  0  0  0  0
   -4.7582    1.1315   -4.1950 H   0  0  0  0  0  0
   -5.2543   -0.1549   -5.3388 H   0  0  0  0  0  0
   -5.7646   -0.4135   -2.1958 H   0  0  0  0  0  0
   -5.0721   -2.0607   -2.0675 H   0  0  0  0  0  0
   -5.8894   -1.5477   -3.5768 H   0  0  0  0  0  0
   -2.5224   -0.5238   -1.8430 H   0  0  0  0  0  0
   -3.4504    0.9810   -2.1321 H   0  0  0  0  0  0
   -2.1899    0.4682   -3.2972 H   0  0  0  0  0  0
   -0.2051   -7.7890    4.5496 C   0  0  0  0  0  0
    0.1858   -6.5255    3.6473 C   0  0  0  0  0  0
    0.3936   -5.1776    4.3842 C   0  0  0  0  0  0
    1.3546   -7.0034    2.8002 C   0  0  0  0  0  0
   -1.0299   -6.2576    2.6192 C   0  0  0  0  0  0
   -0.8820   -7.4332    5.3445 H   0  0  0  0  0  0
    0.6621   -8.2818    5.0205 H   0  0  0  0  0  0
   -0.7422   -8.5324    3.9368 H   0  0  0  0  0  0
    0.5077   -4.3395    3.6763 H   0  0  0  0  0  0
    1.3335   -5.2905    4.9502 H   0  0  0  0  0  0
   -0.4160   -4.9326    5.0921 H   0  0  0  0  0  0
    2.2279   -7.3112    3.3996 H   0  0  0  0  0  0
    1.6736   -6.2234    2.0886 H   0  0  0  0  0  0
    0.9952   -7.8755    2.2285 H   0  0  0  0  0  0
   -0.7804   -5.3887    1.9872 H   0  0  0  0  0  0
   -1.9571   -6.0346    3.1736 H   0  0  0  0  0  0
   -1.2113   -7.1275    1.9658 H   0  0  0  0  0  0
  1  2  1  0  0  0
  2  3  1  0  0  0
  2  4  1  0  0  0
  2  5  1  0  0  0
  1  6  1  0  0  0
  1  7  1  0  0  0
  1  8  1  0  0  0
  3  9  1  0  0  0
  3 10  1  0  0  0
  3 11  1  0  0  0
  4 12  1  0  0  0
  4 13  1  0  0  0
  4 14  1  0  0  0
  5 15  1  0  0  0
  5 16  1  0  0  0
  5 17  1  0  0  0
 18 19  1  0  0  0
 19 20  1  0  0  0
 19 21  1  0  0  0
 19 22  1  0  0  0
 18 23  1  0  0  0
 18 24  1  0  0  0
 18 25  1  0  0  0
 20 26  1  0  0  0
 20 27  1  0  0  0
 20 28  1  0  0  0
 21 29  1  0  0  0
 21 30  1  0  0  0
 21 31  1  0  0  0
 22 32  1  0  0  0
 22 33  1  0  0  0
 22 34  1  0  0  0
M  END
$$$$
