


 34 32  0  0  1  0            999 V2000
   -7.2602   -1.4391    3.0949 C   0  0  0  0  0  0
   -6.3995   -0.4371    2.2510 C   0  0  0  0  0  0
   -4.9127   -0.8746    2.5593 C   0  0  0  0  0  0
   -6.7617   -0.4648    0.7552 C   0  0  0  0  0  0
   -6.7005    0.9546    2.8610 C   0  0  0  0  0  0
   -6.8606   -1.5142    4.1202 H   0  0  0  0  0  0
   -7.2687   -2.4466    2.6460 H   0  0  0  0  0  0
   -8.2979   -1.0689    3.1479 H   0  0  0  0  0  0
   -4.6911   -1.9029    2.2276 H   0  0  0  0  0  0
   -4.6639   -0.7891    3.6305 H   0  0  0  0  0  0
   -4.2734   -0.1767    1.9929 H   0  0  0  0  0  0
   -6.2599    0.3646    0.2289 H   0  0  0  0  0  0
   -7.8526   -0.3352    0.6566 H   0  0  0  0  0  0
   -6.4749   -1.4134    0.2709 H   0  0  0  0  0  0
   -7.7697    1.2124    2.7782 H   0  0  0  0  0  0
   -6.1121    1.7164    2.3224 H   0  0  0  0  0  0
   -6.4146    0.9774    3.9261 H   0  0  0  0  0  0
   -2.1095    5.2714    0.8745 C   0  0  0  0  0  0
   -3.2887    4.3522    0.7783 C   0  0  0  0  0  0
   -2.9940    3.0956    1.6608 C   0  0  0  0  0  0
   -4.5529    4.8685    1.3466 C   0  0  0  0  0  0
   -3.5295    3.7758   -0.6574 C   0  0  0  0  0  0
   -2.1692    6.0715    0.1177 H   0  0  0  0  0  0
   -1.2123    4.6624    0.6726 H   0  0  0  0  0  0
   -2.0032    5.7354    1.8695 H   0  0  0  0  0  0
   -3.8238    2.3791    1.7816 H   0  0  0  0  0  0
   -2.6717    3.4325    2.6604 H   0  0  0  0  0  0
   -2.1500    2.5778    1.1749 H   0  0  0  0  0  0
   -4.9133    5.8061    0.8909 H   0  0  0  0  0  0
   -4.4441    5.0244    2.4330 H   0  0  0  0  0  0
   -5.3080    4.0824    1.1779 H   0  0  0  0  0  0
   -4.3005    2.9910   -0.5778 H   0  0  0  0  0  0
   -2.6182    3.3310   -1.0913 H   0  0  0  0  0  0
   -3.8965    4.5615   -1.3390 H   0  0  0  0  0  0
  1  2  1  0  0  0
  2  3  1  0  0  0
  2  4  1  0  0  0
  2  5  1  0  0  0
  1  6  1  0  0  0
  1  7  1  0  0  0
  1  8  1  0  0  0
  3  9  1  0  0  0
  3 10  1  0  0  0
  3 11  1  0  0  0
  4 12  1  0  0  0
  4 13  1  0  0  0
  4 14  1  0  0  0
  5 15  1  0  0  0
  5 16  1  0  0  0
  5 17  1  0  0  0
 18 19  1  0  0  0
 19 20  1  0  0  0
 19 21  1  0  0  0
 19 22  1  0  0  0
 18 23  1  0  0  0
 18 24  1  0  0  0
 18 25  1  0  0  0
 20 26  1  0  0  0
 20 27  1  0  0  0
 20 28  1  0  0  0
 21 29  1  0  0  0
 21 30  1  0  0  0
 21 31  1  0  0  0
 22 32  1  0  0  0
 22 33  1  0  0  0
 22 34  1  0  0  0
M  END
$$$$
