


 29 28  0  0  1  0            999 V2000
    4.1053    1.2696    0.3346 C   0  0  0  0  0  0
    4.6492    1.4847    1.7473 C   0  0  0  0  0  0
    3.7229    2.4297    2.5132 C   0  0  0  0  0  0
    2.2899    1.9207    2.4441 C   0  0  0  0  0  0
    1.8459    1.7768    1.0996 O   0  0  0  0  0  0
    2.6487    0.8323    0.4003 C   0  0  0  0  0  0
    4.6960    0.5071   -0.2087 H   0  0  0  0  0  0
    4.1663    2.2143   -0.2393 H   0  0  0  0  0  0
    4.6846    0.5107    2.2721 H   0  0  0  0  0  0
    5.6801    1.8868    1.7141 H   0  0  0  0  0  0
    3.7621    3.4404    2.0634 H   0  0  0  0  0  0
    4.0322    2.5204    3.5722 H   0  0  0  0  0  0
    1.5822    2.6211    2.9278 H   0  0  0  0  0  0
    2.2092    0.9474    2.9653 H   0  0  0  0  0  0
    2.2031    0.7380   -0.6087 H   0  0  0  0  0  0
    2.5726   -0.1548    0.8954 H   0  0  0  0  0  0
   -3.0077    3.6344   -0.7411 C   0  0  0  0  0  0
   -1.6273    4.1080   -0.7513 N   0  0  0  0  0  0
   -0.6100    3.4411   -0.2178 C   0  0  0  0  0  0
    0.6296    3.9428   -0.2676 N   0  0  0  0  0  0
    0.7978    4.8455   -0.7186 H   0  0  0  0  0  0
    1.4088    3.4241    0.1452 H   0  0  0  0  0  0
   -0.8245    2.2631    0.3717 N   0  0  0  0  0  0
   -3.6351    4.3849   -1.2507 H   0  0  0  0  0  0
   -3.3801    3.5054    0.2891 H   0  0  0  0  0  0
   -3.1061    2.6735   -1.2736 H   0  0  0  0  0  0
   -1.4273    5.0078   -1.1952 H   0  0  0  0  0  0
   -1.7709    1.8767    0.4115 H   0  0  0  0  0  0
   -0.0435    1.7465    0.7837 H   0  0  0  0  0  0
  1  2  1  0  0  0
  2  3  1  0  0  0
  3  4  1  0  0  0
  4  5  1  0  0  0
  5  6  1  0  0  0
  1  6  1  0  0  0
  1  7  1  0  0  0
  1  8  1  0  0  0
  2  9  1  0  0  0
  2 10  1  0  0  0
  3 11  1  0  0  0
  3 12  1  0  0  0
  4 13  1  0  0  0
  4 14  1  0  0  0
  6 15  1  0  0  0
  6 16  1  0  0  0
 17 18  1  0  0  0
 18 19  1  0  0  0
 19 20  2  0  0  0
 20 21  1  0  0  0
 20 22  1  0  0  0
 19 23  1  0  0  0
 17 24  1  0  0  0
 17 25  1  0  0  0
 17 26  1  0  0  0
 18 27  1  0  0  0
 23 28  1  0  0  0
 23 29  1  0  0  0
M  CHG  1  20   1
M  END
$$$$
