


 14 12  0  0  1  0            999 V2000
    0.8467    3.8856    2.9644 C   0  0  0  0  0  0
    0.2687    2.9896    1.8924 C   0  0  0  0  0  0
    0.7606    1.6674    2.1279 O   0  0  0  0  0  0
    1.9486    3.8767    2.9170 H   0  0  0  0  0  0
    0.5347    3.5370    3.9633 H   0  0  0  0  0  0
    0.4971    4.9229    2.8287 H   0  0  0  0  0  0
   -0.8375    3.0050    1.9331 H   0  0  0  0  0  0
    0.5735    3.3440    0.8890 H   0  0  0  0  0  0
    0.3913    1.0780    1.4375 H   0  0  0  0  0  0
    3.5508    4.1063    0.1195 Cl  0  0  0  0  0  0
    3.3400    2.3579    0.2118 C   0  0  0  0  0  0
    2.3388    1.7214   -1.0929 Cl  0  0  0  0  0  0
    4.3337    1.8715    0.1752 H   0  0  0  0  0  0
    2.8749    2.1006    1.1829 H   0  0  0  0  0  0
  1  2  1  0  0  0
  2  3  1  0  0  0
  1  4  1  0  0  0
  1  5  1  0  0  0
  1  6  1  0  0  0
  2  7  1  0  0  0
  2  8  1  0  0  0
  3  9  1  0  0  0
 10 11  1  0  0  0
 11 12  1  0  0  0
 11 13  1  0  0  0
 11 14  1  0  0  0
M  END
$$$$
