


 30 30  0  0  1  0            999 V2000
    4.4661    1.7333    2.2007 C   0  0  0  0  0  0
    4.1297    3.1722    2.5949 C   0  0  0  0  0  0
    2.8621    3.2080    3.4501 C   0  0  0  0  0  0
    2.9995    2.2654    4.6402 C   0  0  0  0  0  0
    3.2639    0.9096    4.1542 N   0  0  0  0  0  0
    4.5407    0.8483    3.4397 C   0  0  0  0  0  0
    5.4269    1.6932    1.6522 H   0  0  0  0  0  0
    3.6793    1.3361    1.5308 H   0  0  0  0  0  0
    4.9702    3.5879    3.1833 H   0  0  0  0  0  0
    4.0063    3.8021    1.6930 H   0  0  0  0  0  0
    1.9937    2.8860    2.8438 H   0  0  0  0  0  0
    2.6608    4.2364    3.8068 H   0  0  0  0  0  0
    2.0657    2.2501    5.2347 H   0  0  0  0  0  0
    3.8105    2.6350    5.2969 H   0  0  0  0  0  0
    3.2860    0.2593    4.9500 H   0  0  0  0  0  0
    4.7347   -0.2039    3.1557 H   0  0  0  0  0  0
    5.3845    1.1877    4.0708 H   0  0  0  0  0  0
    1.2120   -0.2166    1.8974 O   0  0  0  0  0  0
   -0.1173    0.1086    1.9958 C   0  0  0  0  0  0
   -0.9521   -0.3055    0.9574 C   0  0  0  0  0  0
   -2.3110   -0.0039    1.0032 C   0  0  0  0  0  0
   -2.8446    0.7087    2.0783 C   0  0  0  0  0  0
   -2.0050    1.1193    3.1123 C   0  0  0  0  0  0
   -0.6427    0.8214    3.0744 C   0  0  0  0  0  0
    1.6785    0.1362    2.6937 H   0  0  0  0  0  0
   -0.5180   -0.8652    0.1184 H   0  0  0  0  0  0
   -2.9628   -0.3325    0.1830 H   0  0  0  0  0  0
   -3.9167    0.9440    2.1098 H   0  0  0  0  0  0
   -2.4105    1.6806    3.9644 H   0  0  0  0  0  0
    0.0174    1.1457    3.8897 H   0  0  0  0  0  0
  1  2  1  0  0  0
  2  3  1  0  0  0
  3  4  1  0  0  0
  4  5  1  0  0  0
  5  6  1  0  0  0
  1  6  1  0  0  0
  1  7  1  0  0  0
  1  8  1  0  0  0
  2  9  1  0  0  0
  2 10  1  0  0  0
  3 11  1  0  0  0
  3 12  1  0  0  0
  4 13  1  0  0  0
  4 14  1  0  0  0
  5 15  1  0  0  0
  6 16  1  0  0  0
  6 17  1  0  0  0
 18 19  1  0  0  0
 19 20  2  0  0  0
 20 21  1  0  0  0
 21 22  2  0  0  0
 22 23  1  0  0  0
 23 24  2  0  0  0
 19 24  1  0  0  0
 18 25  1  0  0  0
 20 26  1  0  0  0
 21 27  1  0  0  0
 22 28  1  0  0  0
 23 29  1  0  0  0
 24 30  1  0  0  0
M  END
$$$$
