


 31 31  0  0  1  0            999 V2000
   -0.6421    0.4669    1.4055 C   0  0  0  0  0  0
    0.2655   -0.2395    0.3963 C   0  0  0  0  0  0
    0.1739    0.4224   -0.9802 C   0  0  0  0  0  0
    0.5060    1.9136   -0.8945 C   0  0  0  0  0  0
   -0.4016    2.6200    0.1147 C   0  0  0  0  0  0
   -0.3100    1.9581    1.4913 C   0  0  0  0  0  0
   -0.5432   -0.0040    2.4025 H   0  0  0  0  0  0
   -1.6946    0.3523    1.0821 H   0  0  0  0  0  0
    1.3118   -0.1807    0.7531 H   0  0  0  0  0  0
   -0.0055   -1.3103    0.3235 H   0  0  0  0  0  0
   -0.8574    0.3067   -1.3654 H   0  0  0  0  0  0
    0.8572   -0.0803   -1.6915 H   0  0  0  0  0  0
    0.4072    2.3844   -1.8914 H   0  0  0  0  0  0
    1.5585    2.0281   -0.5710 H   0  0  0  0  0  0
   -1.4479    2.5612   -0.2420 H   0  0  0  0  0  0
   -0.1305    3.6908    0.1875 H   0  0  0  0  0  0
   -0.9932    2.4608    2.2026 H   0  0  0  0  0  0
    0.7214    2.0737    1.8764 H   0  0  0  0  0  0
    3.2417    0.7101   -0.1022 O   0  0  0  0  0  0
    2.8025    1.3346    1.0379 C   0  0  0  0  0  0
    2.6942    2.7251    1.0000 C   0  0  0  0  0  0
    2.2537    3.4133    2.1279 C   0  0  0  0  0  0
    1.9198    2.7243    3.2950 C   0  0  0  0  0  0
    2.0303    1.3351    3.3259 C   0  0  0  0  0  0
    2.4707    0.6380    2.2006 C   0  0  0  0  0  0
    3.2693   -0.2629    0.0669 H   0  0  0  0  0  0
    2.9604    3.2533    0.0750 H   0  0  0  0  0  0
    2.1706    4.5075    2.0919 H   0  0  0  0  0  0
    1.5729    3.2713    4.1816 H   0  0  0  0  0  0
    1.7712    0.7797    4.2369 H   0  0  0  0  0  0
    2.5572   -0.4563    2.2266 H   0  0  0  0  0  0
  1  2  1  0  0  0
  2  3  1  0  0  0
  3  4  1  0  0  0
  4  5  1  0  0  0
  5  6  1  0  0  0
  1  6  1  0  0  0
  1  7  1  0  0  0
  1  8  1  0  0  0
  2  9  1  0  0  0
  2 10  1  0  0  0
  3 11  1  0  0  0
  3 12  1  0  0  0
  4 13  1  0  0  0
  4 14  1  0  0  0
  5 15  1  0  0  0
  5 16  1  0  0  0
  6 17  1  0  0  0
  6 18  1  0  0  0
 19 20  1  0  0  0
 20 21  2  0  0  0
 21 22  1  0  0  0
 22 23  2  0  0  0
 23 24  1  0  0  0
 24 25  2  0  0  0
 20 25  1  0  0  0
 19 26  1  0  0  0
 21 27  1  0  0  0
 22 28  1  0  0  0
 23 29  1  0  0  0
 24 30  1  0  0  0
 25 31  1  0  0  0
M  END
$$$$
