


  8  6  0  0  1  0            999 V2000
    6.0447   -0.1624   -1.2865 O   0  0  0  0  0  0
    5.3946   -0.6589   -0.7395 H   0  0  0  0  0  0
    5.7055   -0.2407   -2.2069 H   0  0  0  0  0  0
    0.0000    0.0000    0.0000 O   0  0  0  0  0  0
    0.6593   -0.6427    0.9928 C   0  0  0  0  0  0
    1.4645   -1.5819    0.7707 O   0  0  0  0  0  0
   -0.7420    0.6043    0.2763 H   0  0  0  0  0  0
    0.2751   -0.3552    1.9915 H   0  0  0  0  0  0
  1  2  1  0  0  0
  1  3  1  0  0  0
  4  5  1  0  0  0
  5  6  2  0  0  0
  4  7  1  0  0  0
  5  8  1  0  0  0
M  END
$$$$
