


  8  6  0  0  1  0            999 V2000
   -0.6593    2.5189    0.8691 O   0  0  0  0  0  0
   -1.4131    1.9873    1.2117 H   0  0  0  0  0  0
   -0.4645    2.1325   -0.0146 H   0  0  0  0  0  0
    0.0000    0.0000    0.0000 O   0  0  0  0  0  0
   -0.5036   -1.2853   -0.2547 C   0  0  0  0  0  0
   -1.0365   -1.5765   -1.3280 O   0  0  0  0  0  0
    0.3016    0.0349    0.9486 H   0  0  0  0  0  0
   -0.3387   -1.9758    0.5960 H   0  0  0  0  0  0
  1  2  1  0  0  0
  1  3  1  0  0  0
  4  5  1  0  0  0
  5  6  2  0  0  0
  4  7  1  0  0  0
  5  8  1  0  0  0
M  END
$$$$
