


  8  6  0  0  1  0            999 V2000
    1.7783   -0.2686    3.7820 O   0  0  0  0  0  0
    2.6385   -0.4051    3.3241 H   0  0  0  0  0  0
    1.1248   -0.7586    3.2334 H   0  0  0  0  0  0
    0.0000    0.0000    0.0000 O   0  0  0  0  0  0
   -0.9132   -1.0408    0.2428 C   0  0  0  0  0  0
   -0.7978   -1.7872    1.1800 O   0  0  0  0  0  0
   -0.3551    0.4632   -0.8071 H   0  0  0  0  0  0
   -1.6934   -0.9585   -0.5396 H   0  0  0  0  0  0
  1  2  1  0  0  0
  1  3  1  0  0  0
  4  5  1  0  0  0
  5  6  2  0  0  0
  4  7  1  0  0  0
  5  8  1  0  0  0
M  END
$$$$
