


  8  6  0  0  1  0            999 V2000
    0.3724    0.3477    2.9844 O   0  0  0  0  0  0
   -0.1281    0.3586    2.1373 H   0  0  0  0  0  0
    0.5522    1.2954    3.1786 H   0  0  0  0  0  0
    0.0000    0.0000    0.0000 O   0  0  0  0  0  0
   -0.6350   -0.9605   -0.6664 C   0  0  0  0  0  0
   -1.7025   -1.3688   -0.2178 O   0  0  0  0  0  0
    0.8199    0.1573   -0.5431 H   0  0  0  0  0  0
   -0.1169   -1.0795   -1.6385 H   0  0  0  0  0  0
  1  2  1  0  0  0
  1  3  1  0  0  0
  4  5  1  0  0  0
  5  6  2  0  0  0
  4  7  1  0  0  0
  5  8  1  0  0  0
M  END
$$$$
