


  8  6  0  0  1  0            999 V2000
    2.7362    3.1834    1.3547 O   0  0  0  0  0  0
    2.6439    2.3915    0.7781 H   0  0  0  0  0  0
    3.5863    3.5943    1.0776 H   0  0  0  0  0  0
   -0.0138    2.0107    2.3779 O   0  0  0  0  0  0
   -0.0651    0.9474    1.5516 C   0  0  0  0  0  0
    0.7677    0.6673    0.7260 O   0  0  0  0  0  0
    0.8319    2.4890    2.1587 H   0  0  0  0  0  0
   -0.9903    0.3700    1.7474 H   0  0  0  0  0  0
  1  2  1  0  0  0
  1  3  1  0  0  0
  4  5  1  0  0  0
  5  6  2  0  0  0
  4  7  1  0  0  0
  5  8  1  0  0  0
M  END
$$$$
