


  8  6  0  0  1  0            999 V2000
   -0.0058    3.3815   -3.1422 O   0  0  0  0  0  0
    0.7996    3.7000   -2.6752 H   0  0  0  0  0  0
    0.1996    2.4500   -3.3837 H   0  0  0  0  0  0
    0.0000    0.0000    0.0000 O   0  0  0  0  0  0
    0.3680   -0.0131   -1.3166 C   0  0  0  0  0  0
    1.1508   -0.8062   -1.7406 O   0  0  0  0  0  0
   -0.5816    0.8083   -0.0189 H   0  0  0  0  0  0
   -0.1887    0.7302   -1.9209 H   0  0  0  0  0  0
  1  2  1  0  0  0
  1  3  1  0  0  0
  4  5  1  0  0  0
  5  6  2  0  0  0
  4  7  1  0  0  0
  5  8  1  0  0  0
M  END
$$$$
