


  8  6  0  0  1  0            999 V2000
   -2.1610    3.5650   -5.2119 O   0  0  0  0  0  0
   -2.1093    3.1379   -6.0968 H   0  0  0  0  0  0
   -2.5629    4.4463   -5.3849 H   0  0  0  0  0  0
    0.0000    0.0000    0.0000 O   0  0  0  0  0  0
    0.7180   -1.0705   -0.2855 C   0  0  0  0  0  0
    0.9340   -1.9737    0.5155 O   0  0  0  0  0  0
   -0.1952    0.6170   -0.7571 H   0  0  0  0  0  0
    1.2177   -0.9128   -1.2617 H   0  0  0  0  0  0
  1  2  1  0  0  0
  1  3  1  0  0  0
  4  5  1  0  0  0
  5  6  2  0  0  0
  4  7  1  0  0  0
  5  8  1  0  0  0
M  END
$$$$
