


  8  6  0  0  1  0            999 V2000
    4.9314    0.8655    2.6846 O   0  0  0  0  0  0
    5.2523   -0.0291    2.4294 H   0  0  0  0  0  0
    5.6561    1.2417    3.2337 H   0  0  0  0  0  0
    0.0000    0.0000    0.0000 O   0  0  0  0  0  0
   -0.9383    0.8995    0.2940 C   0  0  0  0  0  0
   -1.9606    1.1637   -0.3404 O   0  0  0  0  0  0
    0.8143    0.0742    0.5687 H   0  0  0  0  0  0
   -0.7171    1.4022    1.2562 H   0  0  0  0  0  0
  1  2  1  0  0  0
  1  3  1  0  0  0
  4  5  1  0  0  0
  5  6  2  0  0  0
  4  7  1  0  0  0
  5  8  1  0  0  0
M  END
$$$$
