


  8  6  0  0  1  0            999 V2000
    1.6145    3.0629   -2.6978 O   0  0  0  0  0  0
    0.9551    2.7199   -3.3426 H   0  0  0  0  0  0
    1.0967    3.2278   -1.8774 H   0  0  0  0  0  0
    0.0000    0.0000    0.0000 O   0  0  0  0  0  0
   -0.8362    0.3434   -0.9388 C   0  0  0  0  0  0
   -1.4182   -0.4738   -1.6192 O   0  0  0  0  0  0
    0.3702    0.7886    0.4827 H   0  0  0  0  0  0
   -1.0224    1.4356   -0.9369 H   0  0  0  0  0  0
  1  2  1  0  0  0
  1  3  1  0  0  0
  4  5  1  0  0  0
  5  6  2  0  0  0
  4  7  1  0  0  0
  5  8  1  0  0  0
M  END
$$$$
