


 26 25  0  0  1  0            999 V2000
    3.3474    3.7763    4.1055 C   0  0  0  0  0  0
    2.5362    2.8760    3.2379 N   0  0  0  0  0  0
    1.5362    3.6825    2.4824 C   0  0  0  0  0  0
    3.4324    2.1705    2.2786 C   0  0  0  0  0  0
    1.8287    1.8745    4.0852 C   0  0  0  0  0  0
    3.8777    4.5240    3.4920 H   0  0  0  0  0  0
    4.0929    3.1931    4.6718 H   0  0  0  0  0  0
    2.6972    4.3061    4.8218 H   0  0  0  0  0  0
    2.0452    4.4291    1.8498 H   0  0  0  0  0  0
    0.9274    3.0293    1.8349 H   0  0  0  0  0  0
    0.8648    4.2113    3.1797 H   0  0  0  0  0  0
    4.1790    1.5685    2.8234 H   0  0  0  0  0  0
    2.8458    1.4995    1.6287 H   0  0  0  0  0  0
    3.9637    2.8993    1.6436 H   0  0  0  0  0  0
    2.5564    1.2691    4.6513 H   0  0  0  0  0  0
    1.1607    2.3821    4.8013 H   0  0  0  0  0  0
    1.2233    1.2001    3.4566 H   0  0  0  0  0  0
    0.1852    0.1534    1.5445 C   0  0  0  0  0  0
    1.0074    1.1901    1.5071 N   0  0  0  0  0  0
    1.1197    1.5123    0.1757 C   0  0  0  0  0  0
    0.3587    0.6629   -0.5980 C   0  0  0  0  0  0
   -0.2304   -0.1978    0.2944 N   0  0  0  0  0  0
   -0.8667   -0.9648    0.0634 H   0  0  0  0  0  0
   -0.1396   -0.3762    2.4401 H   0  0  0  0  0  0
    1.7436    2.3408   -0.1594 H   0  0  0  0  0  0
    0.1881    0.5951   -1.6724 H   0  0  0  0  0  0
  1  2  1  0  0  0
  2  3  1  0  0  0
  2  4  1  0  0  0
  2  5  1  0  0  0
  1  6  1  0  0  0
  1  7  1  0  0  0
  1  8  1  0  0  0
  3  9  1  0  0  0
  3 10  1  0  0  0
  3 11  1  0  0  0
  4 12  1  0  0  0
  4 13  1  0  0  0
  4 14  1  0  0  0
  5 15  1  0  0  0
  5 16  1  0  0  0
  5 17  1  0  0  0
 18 19  2  0  0  0
 19 20  1  0  0  0
 20 21  2  0  0  0
 21 22  1  0  0  0
 22 23  1  0  0  0
 18 22  1  0  0  0
 18 24  1  0  0  0
 20 25  1  0  0  0
 21 26  1  0  0  0
M  CHG  1   2   1
M  END
$$$$
