


 24 24  0  0  1  0            999 V2000
    2.9902  -13.4075    4.5638 C   0  0  0  0  0  0
    2.9211  -13.1270    6.0580 C   0  0  0  0  0  0
    3.8268  -13.7034    6.8979 C   0  0  0  0  0  0
    3.6047  -13.1782    8.2353 N   0  0  0  0  0  0
    2.4642  -12.4196    8.0895 C   0  0  0  0  0  0
    2.0542  -12.3287    6.7883 N   0  0  0  0  0  0
    1.2699  -11.7598    6.4599 H   0  0  0  0  0  0
    1.9795  -13.6834    4.2188 H   0  0  0  0  0  0
    3.6855  -14.2234    4.3041 H   0  0  0  0  0  0
    3.3059  -12.4938    4.0327 H   0  0  0  0  0  0
    4.7720  -14.1733    6.6261 H   0  0  0  0  0  0
    1.9429  -12.0373    8.9671 H   0  0  0  0  0  0
    6.9497  -11.6339    7.7468 C   0  0  0  0  0  0
    7.3023  -12.3492    8.9876 C   0  0  0  0  0  0
    8.4456  -12.6048    9.7290 C   0  0  0  0  0  0
    8.0811  -13.3778   10.8401 N   0  0  0  0  0  0
    6.7899  -13.5042   10.7962 C   0  0  0  0  0  0
    6.2691  -12.8615    9.7365 N   0  0  0  0  0  0
    5.3455  -12.8562    9.2967 H   0  0  0  0  0  0
    7.6537  -10.7956    7.6121 H   0  0  0  0  0  0
    5.9235  -11.2306    7.7750 H   0  0  0  0  0  0
    7.0382  -12.3102    6.8799 H   0  0  0  0  0  0
    9.4648  -12.2322    9.6273 H   0  0  0  0  0  0
    6.1562  -14.1672   11.3852 H   0  0  0  0  0  0
  1  2  1  0  0  0
  2  3  2  0  0  0
  3  4  1  0  0  0
  4  5  2  0  0  0
  5  6  1  0  0  0
  6  7  1  0  0  0
  2  6  1  0  0  0
  1  8  1  0  0  0
  1  9  1  0  0  0
  1 10  1  0  0  0
  3 11  1  0  0  0
  5 12  1  0  0  0
 13 14  1  0  0  0
 14 15  2  0  0  0
 15 16  1  0  0  0
 16 17  2  0  0  0
 17 18  1  0  0  0
 18 19  1  0  0  0
 14 18  1  0  0  0
 13 20  1  0  0  0
 13 21  1  0  0  0
 13 22  1  0  0  0
 15 23  1  0  0  0
 17 24  1  0  0  0
M  END
$$$$
