


 24 24  0  0  1  0            999 V2000
   -0.7702    2.4399    1.5424 C   0  0  0  0  0  0
    0.3103    2.8959    2.4642 C   0  0  0  0  0  0
    1.3575    3.7816    2.3084 C   0  0  0  0  0  0
    2.1065    3.8817    3.4581 N   0  0  0  0  0  0
    1.5237    3.0621    4.3167 C   0  0  0  0  0  0
    0.4385    2.4483    3.7592 N   0  0  0  0  0  0
   -0.1736    1.7727    4.2234 H   0  0  0  0  0  0
   -0.6436    2.9494    0.5724 H   0  0  0  0  0  0
   -1.7672    2.6888    1.9431 H   0  0  0  0  0  0
   -0.7194    1.3506    1.3768 H   0  0  0  0  0  0
    1.6062    4.3543    1.4150 H   0  0  0  0  0  0
    1.8396    2.8751    5.3430 H   0  0  0  0  0  0
    3.0299   -2.1179   -0.0866 C   0  0  0  0  0  0
    2.9748   -2.5564    1.3381 C   0  0  0  0  0  0
    2.1541   -3.4384    2.0118 C   0  0  0  0  0  0
    2.4895   -3.5199    3.3436 N   0  0  0  0  0  0
    3.5109   -2.6927    3.4889 C   0  0  0  0  0  0
    3.8356   -2.0918    2.3062 N   0  0  0  0  0  0
    4.5882   -1.4137    2.1638 H   0  0  0  0  0  0
    2.2350   -2.6389   -0.6462 H   0  0  0  0  0  0
    4.0026   -2.3670   -0.5430 H   0  0  0  0  0  0
    2.8678   -1.0305   -0.1754 H   0  0  0  0  0  0
    1.3328   -4.0210    1.5946 H   0  0  0  0  0  0
    4.0484   -2.4912    4.4154 H   0  0  0  0  0  0
  1  2  1  0  0  0
  2  3  2  0  0  0
  3  4  1  0  0  0
  4  5  2  0  0  0
  5  6  1  0  0  0
  6  7  1  0  0  0
  2  6  1  0  0  0
  1  8  1  0  0  0
  1  9  1  0  0  0
  1 10  1  0  0  0
  3 11  1  0  0  0
  5 12  1  0  0  0
 13 14  1  0  0  0
 14 15  2  0  0  0
 15 16  1  0  0  0
 16 17  2  0  0  0
 17 18  1  0  0  0
 18 19  1  0  0  0
 14 18  1  0  0  0
 13 20  1  0  0  0
 13 21  1  0  0  0
 13 22  1  0  0  0
 15 23  1  0  0  0
 17 24  1  0  0  0
M  END
$$$$
