


 24 24  0  0  1  0            999 V2000
    0.0000    0.0000    0.0000 C   0  0  0  0  0  0
    0.4042   -1.4408    0.0515 C   0  0  0  0  0  0
    0.3305   -2.2025    1.1764 C   0  0  0  0  0  0
    1.0221   -3.4298    0.9365 N   0  0  0  0  0  0
    1.4447   -3.3143   -0.2852 C   0  0  0  0  0  0
    1.1499   -2.1431   -0.8627 N   0  0  0  0  0  0
    1.3096   -1.9727   -1.8587 H   0  0  0  0  0  0
    0.8968    0.6306   -0.1210 H   0  0  0  0  0  0
   -0.4939    0.2691    0.9488 H   0  0  0  0  0  0
   -0.6941    0.2124   -0.8305 H   0  0  0  0  0  0
   -0.2027   -1.9613    2.0960 H   0  0  0  0  0  0
    1.9405   -4.0962   -0.8604 H   0  0  0  0  0  0
    4.0361   -7.2902    1.8921 C   0  0  0  0  0  0
    4.7115   -6.2246    2.6703 C   0  0  0  0  0  0
    5.8881   -6.1487    3.2951 C   0  0  0  0  0  0
    6.0575   -4.8525    3.7341 N   0  0  0  0  0  0
    5.0004   -4.1756    3.4317 C   0  0  0  0  0  0
    4.1831   -4.9566    2.7162 N   0  0  0  0  0  0
    3.2634   -4.6095    2.4330 H   0  0  0  0  0  0
    3.9571   -7.1010    0.8083 H   0  0  0  0  0  0
    3.0206   -7.4272    2.3002 H   0  0  0  0  0  0
    4.6059   -8.2220    2.0460 H   0  0  0  0  0  0
    6.6876   -6.8862    3.3655 H   0  0  0  0  0  0
    4.9145   -3.0986    3.5756 H   0  0  0  0  0  0
  1  2  1  0  0  0
  2  3  2  0  0  0
  3  4  1  0  0  0
  4  5  2  0  0  0
  5  6  1  0  0  0
  6  7  1  0  0  0
  2  6  1  0  0  0
  1  8  1  0  0  0
  1  9  1  0  0  0
  1 10  1  0  0  0
  3 11  1  0  0  0
  5 12  1  0  0  0
 13 14  1  0  0  0
 14 15  2  0  0  0
 15 16  1  0  0  0
 16 17  2  0  0  0
 17 18  1  0  0  0
 18 19  1  0  0  0
 14 18  1  0  0  0
 13 20  1  0  0  0
 13 21  1  0  0  0
 13 22  1  0  0  0
 15 23  1  0  0  0
 17 24  1  0  0  0
M  END
$$$$
