


 18 16  0  0  1  0            999 V2000
    3.7574    0.9961   12.3303 C   0  0  0  0  0  0
    4.9857    0.7910   13.0597 N   0  0  0  0  0  0
    5.4660    1.5138   14.0646 C   0  0  0  0  0  0
    4.8732    2.4562   14.5127 O   0  0  0  0  0  0
    3.5208    0.0135   11.8885 H   0  0  0  0  0  0
    3.9246    1.7181   11.5134 H   0  0  0  0  0  0
    2.8913    1.3322   12.9250 H   0  0  0  0  0  0
    5.5073   -0.0600   12.8355 H   0  0  0  0  0  0
    6.3955    1.0141   14.4308 H   0  0  0  0  0  0
    7.5500    5.8183    8.6114 C   0  0  0  0  0  0
    7.6952    7.0147    7.7950 N   0  0  0  0  0  0
    8.2475    8.1663    8.1545 C   0  0  0  0  0  0
    8.6844    8.4172    9.2579 O   0  0  0  0  0  0
    8.3623    5.1073    8.3851 H   0  0  0  0  0  0
    6.5838    5.3165    8.4347 H   0  0  0  0  0  0
    7.6124    6.0963    9.6770 H   0  0  0  0  0  0
    7.6238    7.0491    6.7751 H   0  0  0  0  0  0
    8.3994    8.8816    7.3102 H   0  0  0  0  0  0
  1  2  1  0  0  0
  2  3  1  0  0  0
  3  4  2  0  0  0
  1  5  1  0  0  0
  1  6  1  0  0  0
  1  7  1  0  0  0
  2  8  1  0  0  0
  3  9  1  0  0  0
 10 11  1  0  0  0
 11 12  1  0  0  0
 12 13  2  0  0  0
 10 14  1  0  0  0
 10 15  1  0  0  0
 10 16  1  0  0  0
 11 17  1  0  0  0
 12 18  1  0  0  0
M  END
$$$$
