


 18 16  0  0  1  0            999 V2000
    0.0000    0.0000    0.0000 C   0  0  0  0  0  0
   -1.3584   -0.5015    0.2434 N   0  0  0  0  0  0
   -2.5642    0.1147    0.0550 C   0  0  0  0  0  0
   -2.7246    1.1358   -0.5131 O   0  0  0  0  0  0
    0.0531    1.0876    0.1761 H   0  0  0  0  0  0
    0.2034   -0.1940   -1.0666 H   0  0  0  0  0  0
    0.7817   -0.4926    0.6025 H   0  0  0  0  0  0
   -1.3787   -1.4612    0.5973 H   0  0  0  0  0  0
   -3.4228   -0.4591    0.4807 H   0  0  0  0  0  0
   -2.6717    4.8841   -1.0624 C   0  0  0  0  0  0
   -2.9050    5.6370    0.1991 N   0  0  0  0  0  0
   -2.1280    6.6282    0.5238 C   0  0  0  0  0  0
   -1.2500    7.0612   -0.1951 O   0  0  0  0  0  0
   -1.9954    4.0240   -0.9229 H   0  0  0  0  0  0
   -2.2415    5.5489   -1.8303 H   0  0  0  0  0  0
   -3.6446    4.5114   -1.4247 H   0  0  0  0  0  0
   -3.5123    5.2909    0.9460 H   0  0  0  0  0  0
   -2.4278    7.1715    1.4526 H   0  0  0  0  0  0
  1  2  1  0  0  0
  2  3  1  0  0  0
  3  4  2  0  0  0
  1  5  1  0  0  0
  1  6  1  0  0  0
  1  7  1  0  0  0
  2  8  1  0  0  0
  3  9  1  0  0  0
 10 11  1  0  0  0
 11 12  1  0  0  0
 12 13  2  0  0  0
 10 14  1  0  0  0
 10 15  1  0  0  0
 10 16  1  0  0  0
 11 17  1  0  0  0
 12 18  1  0  0  0
M  END
$$$$
