


 18 16  0  0  1  0            999 V2000
    5.3521    4.1558    4.5497 C   0  0  0  0  0  0
    4.8025    3.4619    3.3559 N   0  0  0  0  0  0
    3.6023    2.8661    3.2455 C   0  0  0  0  0  0
    2.8829    2.3634    4.1742 O   0  0  0  0  0  0
    6.4427    4.0816    4.6967 H   0  0  0  0  0  0
    4.8483    3.6672    5.4007 H   0  0  0  0  0  0
    5.0703    5.2222    4.5392 H   0  0  0  0  0  0
    5.2664    3.6343    2.4606 H   0  0  0  0  0  0
    3.3528    2.8095    2.1582 H   0  0  0  0  0  0
    3.2271    4.2838   -2.6323 C   0  0  0  0  0  0
    4.3962    4.0847   -3.4327 N   0  0  0  0  0  0
    5.5591    4.7498   -3.5069 C   0  0  0  0  0  0
    5.7838    5.6591   -2.7391 O   0  0  0  0  0  0
    2.4513    3.6131   -3.0385 H   0  0  0  0  0  0
    2.8696    5.3242   -2.7122 H   0  0  0  0  0  0
    3.3763    4.0440   -1.5660 H   0  0  0  0  0  0
    4.1779    3.3546   -4.1153 H   0  0  0  0  0  0
    6.0360    4.2880   -4.4053 H   0  0  0  0  0  0
  1  2  1  0  0  0
  2  3  1  0  0  0
  3  4  2  0  0  0
  1  5  1  0  0  0
  1  6  1  0  0  0
  1  7  1  0  0  0
  2  8  1  0  0  0
  3  9  1  0  0  0
 10 11  1  0  0  0
 11 12  1  0  0  0
 12 13  2  0  0  0
 10 14  1  0  0  0
 10 15  1  0  0  0
 10 16  1  0  0  0
 11 17  1  0  0  0
 12 18  1  0  0  0
M  END
$$$$
