


 18 16  0  0  1  0            999 V2000
    3.1785    0.4083   -1.1657 C   0  0  0  0  0  0
    4.3874   -0.1729   -0.6138 N   0  0  0  0  0  0
    4.3858   -0.7807    0.5971 C   0  0  0  0  0  0
    3.3978   -0.8896    1.3083 O   0  0  0  0  0  0
    2.3958   -0.3583   -1.2930 H   0  0  0  0  0  0
    3.4051    0.8469   -2.1521 H   0  0  0  0  0  0
    2.7884    1.2035   -0.5083 H   0  0  0  0  0  0
    5.2663   -0.1317   -1.1357 H   0  0  0  0  0  0
    5.3901   -1.1770    0.8833 H   0  0  0  0  0  0
    0.7599    1.1553    1.6676 C   0  0  0  0  0  0
    1.0705   -0.1591    1.1386 N   0  0  0  0  0  0
    0.1239   -0.9137    0.5301 C   0  0  0  0  0  0
   -1.0376   -0.5651    0.3781 O   0  0  0  0  0  0
    0.4067    1.8280    0.8680 H   0  0  0  0  0  0
    1.6692    1.5892    2.1164 H   0  0  0  0  0  0
   -0.0204    1.0924    2.4447 H   0  0  0  0  0  0
    2.0173   -0.5384    1.2181 H   0  0  0  0  0  0
    0.5166   -1.8980    0.1773 H   0  0  0  0  0  0
  1  2  1  0  0  0
  2  3  1  0  0  0
  3  4  2  0  0  0
  1  5  1  0  0  0
  1  6  1  0  0  0
  1  7  1  0  0  0
  2  8  1  0  0  0
  3  9  1  0  0  0
 10 11  1  0  0  0
 11 12  1  0  0  0
 12 13  2  0  0  0
 10 14  1  0  0  0
 10 15  1  0  0  0
 10 16  1  0  0  0
 11 17  1  0  0  0
 12 18  1  0  0  0
M  END
$$$$
