


 18 16  0  0  1  0            999 V2000
    1.0683   -5.0518  -10.0497 C   0  0  0  0  0  0
    0.8388   -5.9170  -11.1861 N   0  0  0  0  0  0
   -0.1289   -6.7885  -11.3312 C   0  0  0  0  0  0
   -1.0962   -6.9370  -10.5597 O   0  0  0  0  0  0
    0.3635   -4.2052  -10.1065 H   0  0  0  0  0  0
    2.0972   -4.6555  -10.0799 H   0  0  0  0  0  0
    0.9189   -5.5699   -9.0875 H   0  0  0  0  0  0
    1.6031   -5.7793  -11.8520 H   0  0  0  0  0  0
    0.0073   -7.1689  -12.3726 H   0  0  0  0  0  0
    7.0697   -7.1220  -13.4116 C   0  0  0  0  0  0
    6.3635   -8.2070  -12.7987 N   0  0  0  0  0  0
    5.0778   -8.1824  -12.3078 C   0  0  0  0  0  0
    4.4734   -7.0659  -12.2507 O   0  0  0  0  0  0
    6.8484   -6.8650  -14.4611 H   0  0  0  0  0  0
    8.1390   -7.3803  -13.3307 H   0  0  0  0  0  0
    6.8731   -6.2368  -12.7836 H   0  0  0  0  0  0
    6.8917   -9.0803  -12.7286 H   0  0  0  0  0  0
    4.6282   -9.1684  -12.0368 H   0  0  0  0  0  0
  1  2  1  0  0  0
  2  3  1  0  0  0
  3  4  2  0  0  0
  1  5  1  0  0  0
  1  6  1  0  0  0
  1  7  1  0  0  0
  2  8  1  0  0  0
  3  9  1  0  0  0
 10 11  1  0  0  0
 11 12  1  0  0  0
 12 13  2  0  0  0
 10 14  1  0  0  0
 10 15  1  0  0  0
 10 16  1  0  0  0
 11 17  1  0  0  0
 12 18  1  0  0  0
M  END
$$$$
