


 23 22  0  0  1  0            999 V2000
    1.9270   -1.0306    0.2889 C   0  0  0  0  0  0
    2.1632    0.3885   -0.2317 C   0  0  0  0  0  0
    1.2787    0.7357   -1.4307 C   0  0  0  0  0  0
   -0.2067    0.6370   -1.0982 C   0  0  0  0  0  0
   -0.7018   -1.0388   -0.6176 S   0  0  0  0  0  0
    0.4849   -1.2473    0.7362 C   0  0  0  0  0  0
    2.6001   -1.2257    1.1458 H   0  0  0  0  0  0
    2.1706   -1.7636   -0.5042 H   0  0  0  0  0  0
    1.9541    1.1064    0.5846 H   0  0  0  0  0  0
    3.2271    0.5025   -0.5158 H   0  0  0  0  0  0
    1.5044    0.0511   -2.2708 H   0  0  0  0  0  0
    1.5018    1.7665   -1.7672 H   0  0  0  0  0  0
   -0.8326    0.8952   -1.9740 H   0  0  0  0  0  0
   -0.4673    1.3362   -0.2805 H   0  0  0  0  0  0
    0.3316   -2.2766    1.1137 H   0  0  0  0  0  0
    0.2240   -0.5469    1.5528 H   0  0  0  0  0  0
    0.0374    3.6744    2.2353 O   0  0  0  0  0  0
   -0.1021    3.0432    3.3186 C   0  0  0  0  0  0
    0.5888    2.0902    3.7726 O   0  0  0  0  0  0
   -1.2595    3.5288    4.2342 C   0  0  0  0  0  0
   -0.8721    4.3143    4.9046 H   0  0  0  0  0  0
   -2.0876    3.9504    3.6400 H   0  0  0  0  0  0
   -1.6535    2.7031    4.8504 H   0  0  0  0  0  0
  1  2  1  0  0  0
  2  3  1  0  0  0
  3  4  1  0  0  0
  4  5  1  0  0  0
  5  6  1  0  0  0
  1  6  1  0  0  0
  1  7  1  0  0  0
  1  8  1  0  0  0
  2  9  1  0  0  0
  2 10  1  0  0  0
  3 11  1  0  0  0
  3 12  1  0  0  0
  4 13  1  0  0  0
  4 14  1  0  0  0
  6 15  1  0  0  0
  6 16  1  0  0  0
 17 18  1  0  0  0
 18 19  2  0  0  0
 18 20  1  0  0  0
 20 21  1  0  0  0
 20 22  1  0  0  0
 20 23  1  0  0  0
M  CHG  1  17  -1
M  END
$$$$
