


 24 24  0  0  1  0            999 V2000
   -8.7718   13.3684    1.7862 O   0  0  0  0  0  0
   -9.8611   13.1560    2.5719 C   0  0  0  0  0  0
  -11.0126   13.8020    2.1347 O   0  0  0  0  0  0
  -11.2122   13.6143    0.7943 C   0  0  0  0  0  0
  -10.1142   13.8500    0.0596 O   0  0  0  0  0  0
   -9.0792   13.0575    0.4604 C   0  0  0  0  0  0
  -10.0754   12.0704    2.5419 H   0  0  0  0  0  0
   -9.5641   13.4120    3.6072 H   0  0  0  0  0  0
  -12.0786   14.2604    0.5550 H   0  0  0  0  0  0
  -11.5326   12.5620    0.6698 H   0  0  0  0  0  0
   -8.2511   13.4199   -0.1787 H   0  0  0  0  0  0
   -9.1644   11.9637    0.3127 H   0  0  0  0  0  0
  -14.3187    8.7256   -0.5212 O   0  0  0  0  0  0
  -14.3566    9.0704    0.7765 C   0  0  0  0  0  0
  -13.6934    8.1811    1.6150 O   0  0  0  0  0  0
  -12.3528    8.0540    1.2050 C   0  0  0  0  0  0
  -12.2909    7.6790   -0.0168 O   0  0  0  0  0  0
  -13.0583    8.5256   -0.8781 C   0  0  0  0  0  0
  -14.0415   10.1241    0.9024 H   0  0  0  0  0  0
  -15.4325    9.0083    1.0297 H   0  0  0  0  0  0
  -11.7997    7.2913    1.7861 H   0  0  0  0  0  0
  -11.9526    9.0470    1.4862 H   0  0  0  0  0  0
  -13.0352    8.0077   -1.8561 H   0  0  0  0  0  0
  -12.4732    9.4600   -0.9781 H   0  0  0  0  0  0
  1  2  1  0  0  0
  2  3  1  0  0  0
  3  4  1  0  0  0
  4  5  1  0  0  0
  5  6  1  0  0  0
  1  6  1  0  0  0
  2  7  1  0  0  0
  2  8  1  0  0  0
  4  9  1  0  0  0
  4 10  1  0  0  0
  6 11  1  0  0  0
  6 12  1  0  0  0
 13 14  1  0  0  0
 14 15  1  0  0  0
 15 16  1  0  0  0
 16 17  1  0  0  0
 17 18  1  0  0  0
 13 18  1  0  0  0
 14 19  1  0  0  0
 14 20  1  0  0  0
 16 21  1  0  0  0
 16 22  1  0  0  0
 18 23  1  0  0  0
 18 24  1  0  0  0
M  END
$$$$
