


 24 24  0  0  1  0            999 V2000
   -2.7430    8.1578    2.1892 O   0  0  0  0  0  0
   -2.8312    6.7551    2.3142 C   0  0  0  0  0  0
   -4.0709    6.3120    2.8107 O   0  0  0  0  0  0
   -5.0626    6.8937    2.0948 C   0  0  0  0  0  0
   -5.0240    8.2782    2.2236 O   0  0  0  0  0  0
   -3.8680    8.7076    1.5662 C   0  0  0  0  0  0
   -2.4334    6.2276    1.4259 H   0  0  0  0  0  0
   -2.1216    6.5924    3.1481 H   0  0  0  0  0  0
   -5.9771    6.5467    2.6132 H   0  0  0  0  0  0
   -5.1637    6.6334    1.0236 H   0  0  0  0  0  0
   -3.8450    9.8125    1.6304 H   0  0  0  0  0  0
   -3.8881    8.4331    0.4940 H   0  0  0  0  0  0
   -7.3355   12.9724    2.4279 O   0  0  0  0  0  0
   -8.0378   11.7557    2.5518 C   0  0  0  0  0  0
   -8.6035   11.4459    1.3218 O   0  0  0  0  0  0
   -7.6868   11.5419    0.2660 C   0  0  0  0  0  0
   -7.1280   12.7297    0.1797 O   0  0  0  0  0  0
   -6.3924   12.9515    1.4077 C   0  0  0  0  0  0
   -7.3407   10.9723    2.9065 H   0  0  0  0  0  0
   -8.8238   11.8803    3.3213 H   0  0  0  0  0  0
   -8.1663   11.4735   -0.7294 H   0  0  0  0  0  0
   -6.8710   10.7944    0.2987 H   0  0  0  0  0  0
   -5.9028   13.9413    1.4862 H   0  0  0  0  0  0
   -5.6104   12.1783    1.5347 H   0  0  0  0  0  0
  1  2  1  0  0  0
  2  3  1  0  0  0
  3  4  1  0  0  0
  4  5  1  0  0  0
  5  6  1  0  0  0
  1  6  1  0  0  0
  2  7  1  0  0  0
  2  8  1  0  0  0
  4  9  1  0  0  0
  4 10  1  0  0  0
  6 11  1  0  0  0
  6 12  1  0  0  0
 13 14  1  0  0  0
 14 15  1  0  0  0
 15 16  1  0  0  0
 16 17  1  0  0  0
 17 18  1  0  0  0
 13 18  1  0  0  0
 14 19  1  0  0  0
 14 20  1  0  0  0
 16 21  1  0  0  0
 16 22  1  0  0  0
 18 23  1  0  0  0
 18 24  1  0  0  0
M  END
$$$$
