


 24 24  0  0  1  0            999 V2000
   13.9955   -5.1090   11.4723 O   0  0  0  0  0  0
   14.4924   -5.0433   12.7751 C   0  0  0  0  0  0
   13.4421   -5.1466   13.6683 O   0  0  0  0  0  0
   12.5710   -6.2500   13.3823 C   0  0  0  0  0  0
   12.1800   -6.2995   12.0837 O   0  0  0  0  0  0
   13.3083   -6.2089   11.1897 C   0  0  0  0  0  0
   15.2230   -5.8692   12.8728 H   0  0  0  0  0  0
   15.0365   -4.0922   12.9326 H   0  0  0  0  0  0
   11.5762   -6.0777   13.8362 H   0  0  0  0  0  0
   12.9809   -7.1833   13.8141 H   0  0  0  0  0  0
   12.9910   -6.2232   10.1293 H   0  0  0  0  0  0
   13.9697   -7.0811   11.3550 H   0  0  0  0  0  0
   14.2370    0.0887    6.4011 O   0  0  0  0  0  0
   14.3490    1.2819    5.8015 C   0  0  0  0  0  0
   15.5547    1.3788    5.1424 O   0  0  0  0  0  0
   15.7901    0.2612    4.3168 C   0  0  0  0  0  0
   15.7161   -0.9051    5.0175 O   0  0  0  0  0  0
   14.4688   -0.9777    5.5560 C   0  0  0  0  0  0
   13.5730    1.3551    5.0154 H   0  0  0  0  0  0
   14.2235    2.1477    6.4799 H   0  0  0  0  0  0
   16.8357    0.3703    3.9699 H   0  0  0  0  0  0
   15.1405    0.2240    3.4212 H   0  0  0  0  0  0
   14.5172   -1.9009    6.1649 H   0  0  0  0  0  0
   13.5856   -1.0575    4.8933 H   0  0  0  0  0  0
  1  2  1  0  0  0
  2  3  1  0  0  0
  3  4  1  0  0  0
  4  5  1  0  0  0
  5  6  1  0  0  0
  1  6  1  0  0  0
  2  7  1  0  0  0
  2  8  1  0  0  0
  4  9  1  0  0  0
  4 10  1  0  0  0
  6 11  1  0  0  0
  6 12  1  0  0  0
 13 14  1  0  0  0
 14 15  1  0  0  0
 15 16  1  0  0  0
 16 17  1  0  0  0
 17 18  1  0  0  0
 13 18  1  0  0  0
 14 19  1  0  0  0
 14 20  1  0  0  0
 16 21  1  0  0  0
 16 22  1  0  0  0
 18 23  1  0  0  0
 18 24  1  0  0  0
M  END
$$$$
