


 30 29  0  0  1  0            999 V2000
    2.6613    0.4693   -0.1273 C   0  0  0  0  0  0
    4.1612    0.2490    0.0802 C   0  0  0  0  0  0
    4.4973    0.1327    1.5684 C   0  0  0  0  0  0
    3.6831   -0.9822    2.2285 C   0  0  0  0  0  0
    2.1832   -0.7618    2.0210 C   0  0  0  0  0  0
    1.8472   -0.6455    0.5327 C   0  0  0  0  0  0
    2.4295    0.5221   -1.2085 H   0  0  0  0  0  0
    2.3755    1.4380    0.3259 H   0  0  0  0  0  0
    4.4594   -0.6878   -0.4286 H   0  0  0  0  0  0
    4.7354    1.0777   -0.3769 H   0  0  0  0  0  0
    4.2590    1.0926    2.0656 H   0  0  0  0  0  0
    5.5800   -0.0556    1.7015 H   0  0  0  0  0  0
    3.9150   -1.0350    3.3096 H   0  0  0  0  0  0
    3.9690   -1.9508    1.7752 H   0  0  0  0  0  0
    1.8850    0.1750    2.5298 H   0  0  0  0  0  0
    1.6091   -1.5906    2.4781 H   0  0  0  0  0  0
    0.7645   -0.4573    0.3997 H   0  0  0  0  0  0
    2.0855   -1.6055    0.0356 H   0  0  0  0  0  0
   -0.0780    3.2032    5.0385 C   0  0  0  0  0  0
   -0.1243    3.8000    3.3396 S   0  0  0  0  0  0
   -1.5021    2.7928    2.7354 C   0  0  0  0  0  0
   -1.7665    3.1071    1.2680 C   0  0  0  0  0  0
   -1.0270    3.4047    5.5632 H   0  0  0  0  0  0
    0.7341    3.7331    5.5642 H   0  0  0  0  0  0
    0.1241    2.1197    5.0804 H   0  0  0  0  0  0
   -1.2484    1.7235    2.8691 H   0  0  0  0  0  0
   -2.3972    3.0059    3.3509 H   0  0  0  0  0  0
   -2.6056    2.4952    0.8963 H   0  0  0  0  0  0
   -2.0248    4.1720    1.1417 H   0  0  0  0  0  0
   -0.8737    2.8870    0.6589 H   0  0  0  0  0  0
  1  2  1  0  0  0
  2  3  1  0  0  0
  3  4  1  0  0  0
  4  5  1  0  0  0
  5  6  1  0  0  0
  1  6  1  0  0  0
  1  7  1  0  0  0
  1  8  1  0  0  0
  2  9  1  0  0  0
  2 10  1  0  0  0
  3 11  1  0  0  0
  3 12  1  0  0  0
  4 13  1  0  0  0
  4 14  1  0  0  0
  5 15  1  0  0  0
  5 16  1  0  0  0
  6 17  1  0  0  0
  6 18  1  0  0  0
 19 20  1  0  0  0
 20 21  1  0  0  0
 21 22  1  0  0  0
 19 23  1  0  0  0
 19 24  1  0  0  0
 19 25  1  0  0  0
 21 26  1  0  0  0
 21 27  1  0  0  0
 22 28  1  0  0  0
 22 29  1  0  0  0
 22 30  1  0  0  0
M  END
$$$$
