


 18 17  0  0  1  0            999 V2000
    0.5477    3.2649    1.0220 C   0  0  0  0  0  0
   -0.4198    3.2068    1.9385 C   0  0  0  0  0  0
    1.2626    2.4432    0.8994 H   0  0  0  0  0  0
    0.6551    4.1359    0.3655 H   0  0  0  0  0  0
   -0.5273    2.3357    2.5950 H   0  0  0  0  0  0
   -1.1348    4.0284    2.0611 H   0  0  0  0  0  0
    0.0698   -0.8711    3.4978 Cl  0  0  0  0  0  0
    1.3980   -0.5497    2.4275 C   0  0  0  0  0  0
    2.5371    0.0817    2.9224 C   0  0  0  0  0  0
    3.6001    0.3362    2.0551 C   0  0  0  0  0  0
    3.5234   -0.0357    0.7136 C   0  0  0  0  0  0
    2.3745   -0.6673    0.2354 C   0  0  0  0  0  0
    1.3038   -0.9288    1.0888 C   0  0  0  0  0  0
    2.5856    0.3699    3.9808 H   0  0  0  0  0  0
    4.5005    0.8336    2.4392 H   0  0  0  0  0  0
    4.3633    0.1673    0.0361 H   0  0  0  0  0  0
    2.3067   -0.9633   -0.8198 H   0  0  0  0  0  0
    0.3944   -1.4250    0.7248 H   0  0  0  0  0  0
  1  2  2  0  0  0
  1  3  1  0  0  0
  1  4  1  0  0  0
  2  5  1  0  0  0
  2  6  1  0  0  0
  7  8  1  0  0  0
  8  9  1  0  0  0
  9 10  2  0  0  0
 10 11  1  0  0  0
 11 12  2  0  0  0
 12 13  1  0  0  0
  8 13  2  0  0  0
  9 14  1  0  0  0
 10 15  1  0  0  0
 11 16  1  0  0  0
 12 17  1  0  0  0
 13 18  1  0  0  0
M  END
$$$$
