


 17 16  0  0  1  0            999 V2000
    0.0000    0.0000    0.0000 C   0  0  0  0  0  0
   -0.9865    0.2485    1.1996 C   0  0  0  0  0  0
   -1.6866   -0.9568    1.7984 C   0  0  0  0  0  0
   -0.6450   -2.3392    2.4764 S   0  0  0  0  0  0
    0.4374   -2.5797    1.0221 C   0  0  0  0  0  0
    1.3427   -1.1445    0.4381 S   0  0  0  0  0  0
    0.4616    0.9722   -0.2594 H   0  0  0  0  0  0
   -0.5527   -0.3582   -0.8898 H   0  0  0  0  0  0
   -0.4035    0.7894    1.9697 H   0  0  0  0  0  0
   -1.7181    0.9597    0.7702 H   0  0  0  0  0  0
   -2.3681   -1.3490    1.0191 H   0  0  0  0  0  0
   -2.3036   -0.6702    2.6717 H   0  0  0  0  0  0
   -0.1944   -2.8445    0.1525 H   0  0  0  0  0  0
    1.1859   -3.3849    1.1519 H   0  0  0  0  0  0
    2.0423    0.8618    6.4910 O   0  0  0  0  0  0
    1.8486    1.6955    6.0055 H   0  0  0  0  0  0
    2.6671    1.1287    7.2027 H   0  0  0  0  0  0
  1  2  1  0  0  0
  2  3  1  0  0  0
  3  4  1  0  0  0
  4  5  1  0  0  0
  5  6  1  0  0  0
  1  6  1  0  0  0
  1  7  1  0  0  0
  1  8  1  0  0  0
  2  9  1  0  0  0
  2 10  1  0  0  0
  3 11  1  0  0  0
  3 12  1  0  0  0
  5 13  1  0  0  0
  5 14  1  0  0  0
 15 16  1  0  0  0
 15 17  1  0  0  0
M  END
$$$$
