


 23 21  0  0  1  0            999 V2000
   -1.6947    1.9421    1.0498 C   0  0  0  0  0  0
   -0.7887    3.1634    1.0645 C   0  0  0  0  0  0
   -0.1178    3.2669    2.3665 N   0  0  0  0  0  0
   -1.1060    1.0335    1.2611 H   0  0  0  0  0  0
   -2.1780    1.8270    0.0650 H   0  0  0  0  0  0
   -2.4802    2.0389    1.8181 H   0  0  0  0  0  0
   -0.0003    3.0476    0.2961 H   0  0  0  0  0  0
   -1.3817    4.0616    0.8057 H   0  0  0  0  0  0
    0.4945    4.0899    2.3877 H   0  0  0  0  0  0
   -0.8171    3.4135    3.1028 H   0  0  0  0  0  0
    5.0758    3.5729   -0.0595 C   0  0  0  0  0  0
    3.3397    3.4855    0.4052 S   0  0  0  0  0  0
    3.3335    1.8344    1.1398 C   0  0  0  0  0  0
    3.6681    0.4521    0.0249 S   0  0  0  0  0  0
    2.2105    0.5843   -1.0219 C   0  0  0  0  0  0
    5.2412    4.5307   -0.5809 H   0  0  0  0  0  0
    5.3488    2.7497   -0.7409 H   0  0  0  0  0  0
    5.7371    3.5337    0.8224 H   0  0  0  0  0  0
    4.0939    1.7759    1.9422 H   0  0  0  0  0  0
    2.3388    1.7080    1.6089 H   0  0  0  0  0  0
    1.2817    0.4126   -0.4522 H   0  0  0  0  0  0
    2.1513    1.5761   -1.5007 H   0  0  0  0  0  0
    2.2865   -0.1831   -1.8105 H   0  0  0  0  0  0
  1  2  1  0  0  0
  2  3  1  0  0  0
  1  4  1  0  0  0
  1  5  1  0  0  0
  1  6  1  0  0  0
  2  7  1  0  0  0
  2  8  1  0  0  0
  3  9  1  0  0  0
  3 10  1  0  0  0
 11 12  1  0  0  0
 12 13  1  0  0  0
 13 14  1  0  0  0
 14 15  1  0  0  0
 11 16  1  0  0  0
 11 17  1  0  0  0
 11 18  1  0  0  0
 13 19  1  0  0  0
 13 20  1  0  0  0
 15 21  1  0  0  0
 15 22  1  0  0  0
 15 23  1  0  0  0
M  END
$$$$
