


 18 16  0  0  1  0            999 V2000
    3.6765    0.8639    0.0935 C   0  0  0  0  0  0
    2.6101   -0.1594    0.4418 C   0  0  0  0  0  0
    1.3655    0.1009   -0.2092 O   0  0  0  0  0  0
    3.8282    0.8978   -0.9985 H   0  0  0  0  0  0
    4.6332    0.5979    0.5735 H   0  0  0  0  0  0
    3.3770    1.8679    0.4384 H   0  0  0  0  0  0
    2.9108   -1.1657    0.0919 H   0  0  0  0  0  0
    2.4695   -0.2125    1.5385 H   0  0  0  0  0  0
    1.0561    0.9829    0.0856 H   0  0  0  0  0  0
   -0.4756    2.6212    1.0206 C   0  0  0  0  0  0
    0.7901    2.3896    0.4349 O   0  0  0  0  0  0
    0.9499    3.1770   -0.7284 C   0  0  0  0  0  0
   -0.5504    1.9868    1.9198 H   0  0  0  0  0  0
   -1.2962    2.3554    0.3333 H   0  0  0  0  0  0
   -0.5970    3.6751    1.3226 H   0  0  0  0  0  0
    0.1902    2.9349   -1.4905 H   0  0  0  0  0  0
    0.8895    4.2546   -0.5012 H   0  0  0  0  0  0
    1.9479    2.9608   -1.1454 H   0  0  0  0  0  0
  1  2  1  0  0  0
  2  3  1  0  0  0
  1  4  1  0  0  0
  1  5  1  0  0  0
  1  6  1  0  0  0
  2  7  1  0  0  0
  2  8  1  0  0  0
  3  9  1  0  0  0
 10 11  1  0  0  0
 11 12  1  0  0  0
 10 13  1  0  0  0
 10 14  1  0  0  0
 10 15  1  0  0  0
 12 16  1  0  0  0
 12 17  1  0  0  0
 12 18  1  0  0  0
M  END
$$$$
