


  7  5  0  0  1  0            999 V2000
    0.0000    0.0000    0.0000 C   0  0  0  0  0  0
    0.9372   -0.6697   -0.4426 C   0  0  0  0  0  0
   -0.7270    0.7406    0.2880 H   0  0  0  0  0  0
    1.8445   -1.1276   -0.7988 H   0  0  0  0  0  0
    2.9507    2.4206    0.9010 O   0  0  0  0  0  0
    2.8145    3.3291    1.2535 H   0  0  0  0  0  0
    2.1486    2.2415    0.3599 H   0  0  0  0  0  0
  1  2  3  0  0  0
  1  3  1  0  0  0
  2  4  1  0  0  0
  5  6  1  0  0  0
  5  7  1  0  0  0
M  END
$$$$
