


  7  5  0  0  1  0            999 V2000
    0.0000    0.0000    0.0000 C   0  0  0  0  0  0
    0.1955    1.2181   -0.0420 C   0  0  0  0  0  0
   -0.1010   -1.0566   -0.1827 H   0  0  0  0  0  0
    0.2069    2.2727   -0.2603 H   0  0  0  0  0  0
   -2.1594   -4.8975    0.0169 O   0  0  0  0  0  0
   -1.3722   -4.6985   -0.5390 H   0  0  0  0  0  0
   -1.8145   -5.4696    0.7394 H   0  0  0  0  0  0
  1  2  3  0  0  0
  1  3  1  0  0  0
  2  4  1  0  0  0
  5  6  1  0  0  0
  5  7  1  0  0  0
M  END
$$$$
