


  7  5  0  0  1  0            999 V2000
    1.0156    4.1681    0.2623 C   0  0  0  0  0  0
    0.7877    3.0005    0.4977 C   0  0  0  0  0  0
    1.2179    5.2050    0.0532 H   0  0  0  0  0  0
    0.5854    1.9635    0.7068 H   0  0  0  0  0  0
    0.0134   -0.9861    1.3035 O   0  0  0  0  0  0
   -0.0059   -1.7368    0.6676 H   0  0  0  0  0  0
   -0.1926   -1.3939    2.1750 H   0  0  0  0  0  0
  1  2  3  0  0  0
  1  3  1  0  0  0
  2  4  1  0  0  0
  5  6  1  0  0  0
  5  7  1  0  0  0
M  END
$$$$
