


 20 20  0  0  1  0            999 V2000
    2.8234   -1.1104    1.0862 C   0  0  0  0  0  0
    1.7513   -0.3142    1.1393 N   0  0  0  0  0  0
    1.7926    0.7028    1.3326 H   0  0  0  0  0  0
    0.6078   -1.0366    0.9029 C   0  0  0  0  0  0
    1.0051   -2.3311    0.6969 C   0  0  0  0  0  0
    2.3729   -2.3395    0.8169 N   0  0  0  0  0  0
    2.9817   -3.1717    0.7159 H   0  0  0  0  0  0
    3.8622   -0.8150    1.2336 H   0  0  0  0  0  0
   -0.3835   -0.5834    0.8993 H   0  0  0  0  0  0
    0.4288   -3.2300    0.4780 H   0  0  0  0  0  0
    1.9439    4.8193    1.1415 C   0  0  0  0  0  0
    1.9544    6.1568    1.5208 C   0  0  0  0  0  0
    1.8892    6.4270    2.8830 C   0  0  0  0  0  0
    1.8190    5.4524    3.8001 N   0  0  0  0  0  0
    1.8158    4.2020    3.3210 C   0  0  0  0  0  0
    1.8744    3.8252    2.0375 N   0  0  0  0  0  0
    1.9925    4.5240    0.0850 H   0  0  0  0  0  0
    2.0116    6.9634    0.7780 H   0  0  0  0  0  0
    1.8927    7.4574    3.2626 H   0  0  0  0  0  0
    1.7586    3.3955    4.0638 H   0  0  0  0  0  0
  1  2  1  0  0  0
  2  3  1  0  0  0
  2  4  1  0  0  0
  4  5  2  0  0  0
  5  6  1  0  0  0
  6  7  1  0  0  0
  1  6  2  0  0  0
  1  8  1  0  0  0
  4  9  1  0  0  0
  5 10  1  0  0  0
 11 12  2  0  0  0
 12 13  1  0  0  0
 13 14  2  0  0  0
 14 15  1  0  0  0
 15 16  2  0  0  0
 11 16  1  0  0  0
 11 17  1  0  0  0
 12 18  1  0  0  0
 13 19  1  0  0  0
 15 20  1  0  0  0
M  CHG  1   6   1
M  END
$$$$
