


 26 24  0  0  1  0            999 V2000
   -3.4935    3.7293   -4.5093 C   0  0  0  0  0  0
   -2.1280    2.6213   -4.1136 S   0  0  0  0  0  0
   -2.5008    2.3321   -2.3637 C   0  0  0  0  0  0
   -2.6119    3.8478   -1.4144 S   0  0  0  0  0  0
   -1.2703    4.8893   -2.0348 C   0  0  0  0  0  0
   -3.1681    4.7794   -4.4198 H   0  0  0  0  0  0
   -4.3863    3.5826   -3.8785 H   0  0  0  0  0  0
   -3.7689    3.5346   -5.5595 H   0  0  0  0  0  0
   -3.4557    1.7734   -2.3268 H   0  0  0  0  0  0
   -1.7012    1.6561   -2.0045 H   0  0  0  0  0  0
   -0.3189    4.3313   -2.0236 H   0  0  0  0  0  0
   -1.1523    5.7980   -1.4209 H   0  0  0  0  0  0
   -1.4886    5.1917   -3.0728 H   0  0  0  0  0  0
   -1.0043   -4.6142    3.2862 C   0  0  0  0  0  0
   -2.2990   -5.7677    3.7373 S   0  0  0  0  0  0
   -1.7723   -6.4483    5.3643 C   0  0  0  0  0  0
   -0.7611   -8.0597    5.3631 S   0  0  0  0  0  0
   -2.0856   -9.2613    4.9757 C   0  0  0  0  0  0
    0.0120   -5.0427    3.3002 H   0  0  0  0  0  0
   -1.0238   -3.7332    3.9496 H   0  0  0  0  0  0
   -1.2335   -4.2857    2.2585 H   0  0  0  0  0  0
   -1.2763   -5.7241    6.0387 H   0  0  0  0  0  0
   -2.7189   -6.7620    5.8450 H   0  0  0  0  0  0
   -2.1526   -9.4705    3.8947 H   0  0  0  0  0  0
   -3.0641   -8.8893    5.3233 H   0  0  0  0  0  0
   -1.8599  -10.2035    5.5030 H   0  0  0  0  0  0
  1  2  1  0  0  0
  2  3  1  0  0  0
  3  4  1  0  0  0
  4  5  1  0  0  0
  1  6  1  0  0  0
  1  7  1  0  0  0
  1  8  1  0  0  0
  3  9  1  0  0  0
  3 10  1  0  0  0
  5 11  1  0  0  0
  5 12  1  0  0  0
  5 13  1  0  0  0
 14 15  1  0  0  0
 15 16  1  0  0  0
 16 17  1  0  0  0
 17 18  1  0  0  0
 14 19  1  0  0  0
 14 20  1  0  0  0
 14 21  1  0  0  0
 16 22  1  0  0  0
 16 23  1  0  0  0
 18 24  1  0  0  0
 18 25  1  0  0  0
 18 26  1  0  0  0
M  END
$$$$
