


 26 24  0  0  1  0            999 V2000
   -9.8069   -2.7622    1.1576 C   0  0  0  0  0  0
  -10.9182   -3.9961    1.8549 S   0  0  0  0  0  0
  -12.1926   -4.0013    0.6197 C   0  0  0  0  0  0
  -11.9354   -4.7210   -1.0459 S   0  0  0  0  0  0
  -13.5216   -4.3389   -1.8728 C   0  0  0  0  0  0
   -9.2142   -3.0652    0.2781 H   0  0  0  0  0  0
   -9.1163   -2.5487    1.9907 H   0  0  0  0  0  0
  -10.3561   -1.8382    0.9103 H   0  0  0  0  0  0
  -13.0748   -4.5037    1.0608 H   0  0  0  0  0  0
  -12.4743   -2.9521    0.4066 H   0  0  0  0  0  0
  -13.8259   -3.2788   -1.8873 H   0  0  0  0  0  0
  -14.2107   -4.8937   -1.2141 H   0  0  0  0  0  0
  -13.6092   -4.7441   -2.8949 H   0  0  0  0  0  0
  -17.2240   -3.3085   -1.2378 C   0  0  0  0  0  0
  -17.3754   -4.8734   -0.2577 S   0  0  0  0  0  0
  -17.5956   -4.1148    1.3411 C   0  0  0  0  0  0
  -16.1632   -3.0977    1.8574 S   0  0  0  0  0  0
  -15.0916   -4.2410    2.7048 C   0  0  0  0  0  0
  -18.1406   -2.7169   -1.0751 H   0  0  0  0  0  0
  -17.1150   -3.4983   -2.3188 H   0  0  0  0  0  0
  -16.3582   -2.7172   -0.8953 H   0  0  0  0  0  0
  -18.4971   -3.5039    1.1417 H   0  0  0  0  0  0
  -17.8559   -4.8534    2.1235 H   0  0  0  0  0  0
  -14.1623   -3.6544    2.7995 H   0  0  0  0  0  0
  -14.8433   -5.2268    2.2767 H   0  0  0  0  0  0
  -15.5167   -4.3916    3.7114 H   0  0  0  0  0  0
  1  2  1  0  0  0
  2  3  1  0  0  0
  3  4  1  0  0  0
  4  5  1  0  0  0
  1  6  1  0  0  0
  1  7  1  0  0  0
  1  8  1  0  0  0
  3  9  1  0  0  0
  3 10  1  0  0  0
  5 11  1  0  0  0
  5 12  1  0  0  0
  5 13  1  0  0  0
 14 15  1  0  0  0
 15 16  1  0  0  0
 16 17  1  0  0  0
 17 18  1  0  0  0
 14 19  1  0  0  0
 14 20  1  0  0  0
 14 21  1  0  0  0
 16 22  1  0  0  0
 16 23  1  0  0  0
 18 24  1  0  0  0
 18 25  1  0  0  0
 18 26  1  0  0  0
M  END
$$$$
