


 26 24  0  0  1  0            999 V2000
   -7.2014    1.3030    3.9670 C   0  0  0  0  0  0
   -5.7623    1.1100    5.0080 S   0  0  0  0  0  0
   -4.7109    2.4300    4.4155 C   0  0  0  0  0  0
   -3.7047    2.1652    2.9461 S   0  0  0  0  0  0
   -3.0725    0.5301    3.2413 C   0  0  0  0  0  0
   -7.8438    0.4724    4.3045 H   0  0  0  0  0  0
   -7.1321    1.2695    2.8667 H   0  0  0  0  0  0
   -7.6742    2.2552    4.2609 H   0  0  0  0  0  0
   -5.3129    3.3544    4.3223 H   0  0  0  0  0  0
   -3.9191    2.6183    5.1658 H   0  0  0  0  0  0
   -3.9078   -0.1878    3.3013 H   0  0  0  0  0  0
   -2.4936    0.4754    4.1785 H   0  0  0  0  0  0
   -2.4162    0.2371    2.4047 H   0  0  0  0  0  0
    2.3413    3.4865   -1.0519 C   0  0  0  0  0  0
    1.8113    5.0972   -1.8325 S   0  0  0  0  0  0
    3.4977    5.6940   -2.2740 C   0  0  0  0  0  0
    4.5239    6.2630   -0.8392 S   0  0  0  0  0  0
    3.5758    7.7162   -0.3259 C   0  0  0  0  0  0
    1.5463    3.1244   -0.3785 H   0  0  0  0  0  0
    3.2957    3.4909   -0.4989 H   0  0  0  0  0  0
    2.4295    2.7872   -1.9002 H   0  0  0  0  0  0
    4.0470    4.9067   -2.8251 H   0  0  0  0  0  0
    3.1835    6.4613   -3.0075 H   0  0  0  0  0  0
    2.5360    7.3607   -0.2310 H   0  0  0  0  0  0
    3.5764    8.6489   -0.9147 H   0  0  0  0  0  0
    3.9657    7.9362    0.6821 H   0  0  0  0  0  0
  1  2  1  0  0  0
  2  3  1  0  0  0
  3  4  1  0  0  0
  4  5  1  0  0  0
  1  6  1  0  0  0
  1  7  1  0  0  0
  1  8  1  0  0  0
  3  9  1  0  0  0
  3 10  1  0  0  0
  5 11  1  0  0  0
  5 12  1  0  0  0
  5 13  1  0  0  0
 14 15  1  0  0  0
 15 16  1  0  0  0
 16 17  1  0  0  0
 17 18  1  0  0  0
 14 19  1  0  0  0
 14 20  1  0  0  0
 14 21  1  0  0  0
 16 22  1  0  0  0
 16 23  1  0  0  0
 18 24  1  0  0  0
 18 25  1  0  0  0
 18 26  1  0  0  0
M  END
$$$$
