


 26 24  0  0  1  0            999 V2000
    1.5969    6.5520   -2.2168 C   0  0  0  0  0  0
    1.6463    5.2677   -0.9313 S   0  0  0  0  0  0
   -0.0996    4.7363   -0.5905 C   0  0  0  0  0  0
   -1.1596    4.3552   -1.9779 S   0  0  0  0  0  0
   -0.2809    3.1461   -3.0179 C   0  0  0  0  0  0
    1.2591    6.0354   -3.1309 H   0  0  0  0  0  0
    2.6046    6.9628   -2.3968 H   0  0  0  0  0  0
    0.9079    7.3882   -2.0102 H   0  0  0  0  0  0
   -0.0243    3.8093    0.0099 H   0  0  0  0  0  0
   -0.6498    5.4841    0.0124 H   0  0  0  0  0  0
   -0.8640    2.8087   -3.8913 H   0  0  0  0  0  0
   -0.0714    2.2737   -2.3764 H   0  0  0  0  0  0
    0.6778    3.5597   -3.3734 H   0  0  0  0  0  0
   -8.0576    0.1020    0.0380 C   0  0  0  0  0  0
   -7.6526    1.3537    1.2536 S   0  0  0  0  0  0
   -8.3044    2.8093    0.4244 C   0  0  0  0  0  0
  -10.1117    2.5549    0.0518 S   0  0  0  0  0  0
  -10.6058    2.0754    1.6803 C   0  0  0  0  0  0
   -7.4826    0.1713   -0.9006 H   0  0  0  0  0  0
   -9.1304    0.2002   -0.1985 H   0  0  0  0  0  0
   -7.8851   -0.8921    0.4837 H   0  0  0  0  0  0
   -8.1964    3.6560    1.1293 H   0  0  0  0  0  0
   -7.7349    3.0591   -0.4914 H   0  0  0  0  0  0
  -11.7015    2.1918    1.7291 H   0  0  0  0  0  0
  -10.1444    2.7916    2.3808 H   0  0  0  0  0  0
  -10.3460    1.0525    2.0011 H   0  0  0  0  0  0
  1  2  1  0  0  0
  2  3  1  0  0  0
  3  4  1  0  0  0
  4  5  1  0  0  0
  1  6  1  0  0  0
  1  7  1  0  0  0
  1  8  1  0  0  0
  3  9  1  0  0  0
  3 10  1  0  0  0
  5 11  1  0  0  0
  5 12  1  0  0  0
  5 13  1  0  0  0
 14 15  1  0  0  0
 15 16  1  0  0  0
 16 17  1  0  0  0
 17 18  1  0  0  0
 14 19  1  0  0  0
 14 20  1  0  0  0
 14 21  1  0  0  0
 16 22  1  0  0  0
 16 23  1  0  0  0
 18 24  1  0  0  0
 18 25  1  0  0  0
 18 26  1  0  0  0
M  END
$$$$
