


 26 24  0  0  1  0            999 V2000
   -5.7711   -4.2580    1.3441 C   0  0  0  0  0  0
   -4.8371   -3.3367    0.1287 S   0  0  0  0  0  0
   -3.2849   -4.1462    0.0239 C   0  0  0  0  0  0
   -2.2930   -4.3307    1.5484 S   0  0  0  0  0  0
   -1.9083   -2.5730    1.8559 C   0  0  0  0  0  0
   -5.2510   -4.0340    2.2906 H   0  0  0  0  0  0
   -5.7712   -5.3505    1.1927 H   0  0  0  0  0  0
   -6.8159   -3.9141    1.4268 H   0  0  0  0  0  0
   -3.5406   -5.1807   -0.2762 H   0  0  0  0  0  0
   -2.6575   -3.7090   -0.7765 H   0  0  0  0  0  0
   -2.6111   -2.0502    2.5262 H   0  0  0  0  0  0
   -1.8284   -2.0021    0.9155 H   0  0  0  0  0  0
   -0.9162   -2.5987    2.3372 H   0  0  0  0  0  0
    5.9543   -2.2467    8.1119 C   0  0  0  0  0  0
    6.0417   -0.4435    7.7831 S   0  0  0  0  0  0
    5.9222   -0.3968    5.9955 C   0  0  0  0  0  0
    4.5123   -1.0734    5.2716 S   0  0  0  0  0  0
    3.2305    0.2168    5.8831 C   0  0  0  0  0  0
    5.2427   -2.7128    7.4099 H   0  0  0  0  0  0
    5.6501   -2.5002    9.1414 H   0  0  0  0  0  0
    6.9571   -2.6676    7.9276 H   0  0  0  0  0  0
    6.1213    0.6183    5.6015 H   0  0  0  0  0  0
    6.8177   -1.0166    5.7970 H   0  0  0  0  0  0
    3.2733    0.3941    6.9710 H   0  0  0  0  0  0
    2.1938   -0.0419    5.6094 H   0  0  0  0  0  0
    3.5093    1.1489    5.3635 H   0  0  0  0  0  0
  1  2  1  0  0  0
  2  3  1  0  0  0
  3  4  1  0  0  0
  4  5  1  0  0  0
  1  6  1  0  0  0
  1  7  1  0  0  0
  1  8  1  0  0  0
  3  9  1  0  0  0
  3 10  1  0  0  0
  5 11  1  0  0  0
  5 12  1  0  0  0
  5 13  1  0  0  0
 14 15  1  0  0  0
 15 16  1  0  0  0
 16 17  1  0  0  0
 17 18  1  0  0  0
 14 19  1  0  0  0
 14 20  1  0  0  0
 14 21  1  0  0  0
 16 22  1  0  0  0
 16 23  1  0  0  0
 18 24  1  0  0  0
 18 25  1  0  0  0
 18 26  1  0  0  0
M  END
$$$$
